$DATA1 SOURCE='PrimeSim HSPICE' VERSION='S-2021.09 linux64' PARAM_COUNT=1
$OPTION MEASFORM=1
$index=1 is a nominal sample in Monte Carlo.
.TITLE ' '
index real_vth1 real_vth2 b1 b2 b3 b4 b5 b6 b7 b8 b9 b10 b11 b12 b13 b14 b15 b16 b17 b18 b19 b20 b21 b22 b23 b24 b25 b26 b27 b28 b29 b30 b31 b32 temper alter#
1    0.6086422    0.6086422    failed    failed    failed    failed    failed    failed    failed    failed    failed    failed    failed    failed    failed    failed    failed    failed    failed    failed    failed    failed    failed    failed    failed    failed    failed    failed    failed    failed    failed    failed    failed    failed   25.0000000 1
2    0.6097007    0.6049636    1.1130946  6.416557e-03  7.817832e-03  5.499043e-03    1.0679585  5.997241e-03    1.1130207  5.684949e-03  5.680682e-03    1.1131135    1.1129144    1.1129975    1.1133629    1.1133089  6.664890e-03  6.509815e-03    1.1129969    1.1107504  6.750172e-02  3.247982e-02    1.1131450    1.1133315  6.097553e-03  6.261444e-03    1.1127562  5.328198e-03  5.503442e-03    1.1130039  5.604296e-03    1.0832854    1.1133076  5.625408e-03   25.0000000 1
3    0.6060575    0.6073661  6.143382e-03    1.1128538    1.1128108    1.1128658    1.1130820    1.1129875  6.969647e-03    1.0727227  6.183264e-03    1.1123844    1.1133031  6.941532e-03    1.1130027  6.218409e-03  5.940905e-03  6.923021e-03    1.1123506    1.1129788  6.831002e-03    1.1125094    1.1132648    1.1128467    1.1129436    1.1087186  5.941186e-03    1.1127771    1.1126844  7.062873e-03    1.1128433    1.1129055  6.190725e-03  6.350943e-03   25.0000000 1
4    0.6090304    0.6054342    1.1126647    failed    failed    failed    failed    failed    failed    failed    failed    failed    failed    failed    failed    failed    failed    failed    failed    failed    failed    failed    failed    failed    failed    failed    failed    failed    failed    failed    failed    failed    failed    failed   25.0000000 1
5    0.6108564    0.6122740    1.1116536  5.766469e-03    1.1114840  5.594730e-03  5.568989e-03    1.1114066  5.751100e-03  6.017881e-03  5.699931e-03  5.804978e-03  5.818773e-03  5.788465e-03  5.884794e-03  5.649533e-03  5.896907e-03  5.844750e-03  5.569090e-03    1.1113721  5.806728e-03  5.482787e-03    1.1115347  5.381340e-03  5.752334e-03    1.1115808  5.323285e-03  5.881362e-03    1.1115396  5.480871e-03  5.938951e-03    1.1112658  5.753598e-03  5.780579e-03   25.0000000 1
6    0.6063207    0.6085754    1.1134527  7.258635e-03  6.019598e-03  5.970941e-03    1.0795235  5.929014e-03    1.1134346    1.1136312  2.889195e-02    1.1105882    1.1138421  7.313108e-03    1.1132213  7.037910e-03    1.1131158  6.179874e-03  7.102309e-03    1.1130551    1.1136080  6.004808e-03    1.1130957  5.713851e-03    1.1131199    1.1131261  5.948305e-03    1.1131540  6.117665e-03    1.1129317  7.078883e-03    1.1131396    1.1135895  7.019744e-03   25.0000000 1
7    0.6119688    0.6082892    1.1129322    1.1127334  6.041882e-03    1.1124755    1.1128213    1.1128272  5.906153e-03  5.990669e-03  7.229391e-03  6.761926e-03    1.1127901  6.540320e-03    1.1131039    1.1133005  6.900085e-03    1.1128657  6.107036e-03  5.916867e-03  6.293443e-03    1.1126390    0.1522551    1.1129195  6.901570e-03    1.1126214  5.185712e-02    1.1124240    1.1128661  5.977227e-03    1.1125601  6.996706e-03    1.0739723    1.1127238   25.0000000 1
8    0.6064730    0.6054258    1.1134137  7.036550e-03    1.0724403  6.304928e-03  6.527209e-03    1.1135421    failed    failed    failed    failed    failed    failed    failed    failed    failed    failed    failed    failed    failed    failed    failed    failed    failed    failed    failed    failed    failed    failed    failed    failed    failed    failed   25.0000000 1
9    0.6078266    0.6062009    1.1122951    1.1123816  7.118326e-03    1.0753998    1.1118172  7.192538e-03    1.1118896  5.102912e-02    1.1021770  7.171265e-03  7.274998e-03    1.1124069  6.025869e-03    1.1121455  5.833661e-02    1.0907175    failed    failed    failed    failed    failed    failed    failed    failed    failed    failed    failed    failed    failed    failed    failed    failed   25.0000000 1
10    0.6121221    0.6012516  6.603826e-03  6.688449e-03  6.713722e-03    1.1124068  3.797049e-02    1.1091988  6.462478e-03    1.1123335    1.1125088    1.1122620  6.587477e-03    1.1119607  6.697754e-03    1.1123094  5.402580e-02    1.1120357    1.1120173    1.1122286  9.400527e-03    1.1125427  6.945102e-03    1.1122041    1.1130915    1.1124183    1.1125009    1.1123053  5.727631e-03    1.1123816  5.942031e-03    1.1121564    1.1128577  6.824458e-03   25.0000000 1
11    0.6092232    0.6097166  7.178200e-03  6.985441e-03    1.1119308  7.551996e-03    1.1106418  4.948011e-02    1.1116863    failed    failed    failed    failed    failed    failed    failed    failed    failed    failed    failed    failed    failed    failed    failed    failed    failed    failed    failed    failed    failed    failed    failed    failed    failed   25.0000000 1
12    0.6071879    0.6106137    1.1119946    1.1118459  6.348751e-03    1.0712015    1.0722027    1.0736985    1.0770643    1.0786384  5.676992e-03  4.035919e-03    1.0723963    1.0722523    1.0744200    1.0732777    1.0736919    1.0741502    1.0732177    1.0732301    1.0734746    1.0744798    1.0750864    1.0740672    1.0744424    1.0735746    1.0737983    1.0725875    1.0732551    1.0729295    1.0750811    1.0751612    1.0747033    1.0746964   25.0000000 1
13    0.6051770    0.6087031  5.612199e-03    1.1124260    1.1108749  4.555952e-02    1.1123819  5.343475e-02  6.086692e-03  6.478964e-03  6.176755e-03    1.1125050    1.1127142  6.446923e-03  5.822073e-03    1.1125224  6.336813e-03    1.1125914  5.475256e-03  6.687652e-03  6.561042e-03    1.1126649  6.499163e-02    1.1117509  5.800762e-03    1.1122710  5.876756e-03    1.1126200    1.1127083  6.476399e-03    1.0729140  5.946852e-03    1.1126151  6.001325e-03   25.0000000 1
14    0.6054809    0.6114433    1.1123843    1.1125367    1.1125801    1.1124768    1.1126735  5.608925e-03    1.1106558    1.1115254  1.882107e-02    1.1109177  6.478045e-03  6.448107e-03    failed    failed    failed    failed    failed    failed    failed    failed    failed    failed    failed    failed    failed    failed    failed    failed    failed    failed    failed    failed   25.0000000 1
15    0.6145700    0.6082478    1.1119997  6.783348e-03    1.1119584    1.1120143    1.1100002    1.1120759    1.1118048  7.029661e-03    1.1118795  6.777039e-03    1.1118514    1.1121150  6.977532e-03    1.1116783    1.1109074    1.1119460  5.857165e-03    1.1117019  5.759765e-03  6.002953e-03  6.970190e-03  5.881297e-03    1.0796099  6.060424e-03    1.1121242  6.893385e-03    1.1117953    1.1115281  5.915677e-03    1.1108200  5.862565e-03    1.1118195   25.0000000 1
16    0.6097200    0.6148010    1.1127092  6.006643e-03  5.959436e-03    1.1121213    1.1126686  6.749087e-03  7.000666e-03    1.1127739    1.1127471    1.1128137    1.1126997  6.189831e-03    1.1123184  6.792278e-03  6.851971e-03    1.1124840  7.079110e-03    1.1120866    1.1129692    1.1128157  6.952479e-03  6.751090e-03    1.1123820  5.919418e-03    1.1120390  6.166381e-03    1.1125469    1.1126004  6.815712e-03    1.1124240  6.473132e-03    1.1123859   25.0000000 1
17    0.6055156    0.6066037  6.272252e-03  6.163688e-03  6.099227e-03    1.1120734  5.655574e-03    1.1117008    1.1095970  5.293269e-02  6.263357e-03    1.0784192  6.092208e-03    1.1120588    1.1124868  5.115664e-02  5.926455e-03  6.082333e-03    1.0929722  5.249111e-02    1.1055466  5.427695e-02    1.1021211  4.861570e-02  6.969021e-02    1.1069436  5.512578e-02    1.0988177  4.839035e-02  6.051384e-03    1.1065254  6.097813e-02  5.758424e-03  5.615645e-03   25.0000000 1
18    0.6067300    0.6089112    1.1121051    1.1121539  5.930703e-03  1.537723e-02    1.1122140    failed    failed    failed    failed    failed    failed    failed    failed    failed    failed    failed    failed    failed    failed    failed    failed    failed    failed    failed    failed    failed    failed    failed    failed    failed    failed    failed   25.0000000 1
19    0.6123379    0.6035089  6.096135e-03  6.094194e-03    1.1125718  6.019972e-03  6.090002e-03  6.049803e-03  6.146508e-03    1.1143994  5.523866e-03    1.1122323  6.302045e-03  5.218490e-03    1.1117402  5.022137e-03    1.1122342  5.342755e-03  5.341972e-03    1.0840627    1.1122697  5.492270e-03    1.1125057  5.461968e-03    1.1126454  5.754429e-03    1.1123275  2.915990e-02  6.066082e-03    1.1120866  9.665853e-02    1.1123340    1.1126635  1.248788e-02   25.0000000 1
20    0.6061325    0.6069540    1.1120775    1.1122695    1.1122617  6.387421e-03    1.1091873  7.276569e-03    1.1103417  6.681982e-03    1.1116106  5.560155e-03    1.0846360    1.1116097  5.821103e-03  6.461864e-03    1.1117694  4.723360e-02  4.713504e-02  4.993047e-02  4.934517e-02  4.793860e-02  6.642044e-02  6.299754e-02  6.407184e-02  4.706403e-02  5.035523e-02  4.946423e-02  5.074172e-02  5.128339e-02  5.139419e-02  5.166979e-02  4.732472e-02  4.804695e-02   25.0000000 1
21    0.6091923    0.6092705  5.292692e-03    1.1124641  5.191640e-03    1.1125664  4.979657e-03    1.1122358  4.763323e-03    1.1126766  4.975700e-03    1.1124113  5.201857e-03    1.1124732  5.155393e-03    1.1125203  5.360363e-03    1.1127714  5.286172e-03    1.1124216  4.988421e-03    1.1128189  5.233565e-03    1.1125953  5.139148e-03    1.1126995  5.018840e-03    1.1124186  5.164936e-03    1.1126347  5.203653e-03    1.1122788  5.241938e-03    1.1125083   25.0000000 1
22    0.6099475    0.6032235    1.1120103    1.1121816    1.1120093  6.169211e-03    1.1119486  6.045292e-03    1.1118937  7.401376e-03  7.256458e-03    1.0836984    1.0715411    1.1117643    1.1119565    1.1121563  7.301611e-03    1.1123364  6.187808e-03  5.757474e-03  6.997651e-03    1.1118081  7.493120e-03    1.1120155  7.057690e-03    1.1068104  7.289503e-03    1.1117682  5.362164e-03    1.1121740  6.886021e-03    1.0718667    1.1118099  6.955070e-03   25.0000000 1
23    0.6096956    0.6098109    1.1130672    1.1129351  6.958273e-03    1.0803306  4.856628e-03    1.1077605  6.150728e-03    1.1126236  7.165969e-03    1.1126611  3.781707e-02    1.0782907  6.129916e-03    1.1127276    1.1127836    1.1127279  6.939463e-03  7.181711e-03  6.712354e-03  6.971699e-03    1.1129101  6.100972e-03    1.0698140  6.377432e-03  6.243956e-03    1.1127346  6.115592e-03  5.966225e-03    1.1128681  6.166497e-03    1.1124503  6.647489e-03   25.0000000 1
24    0.6092753    0.6050208  5.841432e-03  6.089094e-03  5.782370e-03  5.520280e-03  6.046651e-03  6.037412e-03  5.561496e-03  6.184007e-03  5.777491e-03  5.787608e-03    1.1114770  1.192243e-02    1.1088367  7.781680e-03    1.1108327    1.1100343  3.593368e-02    1.1035896    0.1152198    1.0925150  9.764292e-03    1.1105282    1.1125341  4.260581e-02    1.1098010    1.1110484    1.1109454    1.1081087  4.606427e-02    1.1113045  5.925568e-03  5.800314e-03   25.0000000 1
25    0.6125805    0.6072409    1.1127348    1.1123112  5.743862e-03    1.0943422  4.831943e-03    1.0797363  4.878112e-03  1.129433e-02  1.882544e-03    1.0712570    1.0733636    1.1119648  1.335806e-02  5.839930e-03    1.1117801    1.1124860  5.701902e-03    1.0722967    1.1118302    1.1120596  5.909798e-03    1.1118412    1.1117057    1.1122134  5.879051e-03    1.1117175    1.1119583  5.348874e-03    1.1116950    1.1123197  5.745109e-03    1.1118623   25.0000000 1
26    0.6081281    0.6068860    1.1120324    1.1121307    1.1121813  6.249212e-03    1.0808398  5.388238e-03    1.0748410  6.411387e-03    1.1121379    failed    failed    failed    failed    failed    failed    failed    failed    failed    failed    failed    failed    failed    failed    failed    failed    failed    failed    failed    failed    failed    failed    failed   25.0000000 1
27    0.6037307    0.6100292  5.990571e-03    1.1086505  4.969283e-02    1.1055805    1.1116729  5.414739e-03    1.1113889  5.365281e-03  5.943201e-03    1.1118004  5.900281e-03  5.439828e-03    1.1115219    1.1114691  6.149669e-03  4.554750e-03    1.1115983  5.905906e-03    1.1113351  5.850504e-03    1.0791971  6.113917e-03    1.1111436  5.849383e-03    1.1113220  5.512518e-03    1.1113053    1.1119038  7.788070e-02  5.437065e-03    1.1118981  5.977439e-03   25.0000000 1
28    0.6081825    0.6113029    1.1118788    1.1121167    1.1123105    1.1123412    1.1125412  5.522971e-03  5.490469e-03    1.1122695    1.1125024    1.1125817    1.1119753    failed    failed    failed    failed    failed    failed    failed    failed    failed    failed    failed    failed    failed    failed    failed    failed    failed    failed    failed    failed    failed   25.0000000 1
29    0.6093635    0.6103343  6.391579e-03  6.272693e-03  6.598132e-03  6.191552e-03    1.1120808  5.671542e-03  5.862484e-03    1.1120659  5.492883e-03    1.1118702    1.1122624  6.285378e-03    1.1118428  1.778514e-02    1.0916356    1.1121210  6.509142e-03    failed    failed    failed    failed    failed    failed    failed    failed    failed    failed    failed    failed    failed    failed    failed   25.0000000 1
30    0.6062385    0.6078193  6.422608e-03    failed    failed    failed    failed    failed    failed    failed    failed    failed    failed    failed    failed    failed    failed    failed    failed    failed    failed    failed    failed    failed    failed    failed    failed    failed    failed    failed    failed    failed    failed    failed   25.0000000 1
31    0.6077099    0.6118556    1.1115674  6.196219e-03    1.1102518  6.272306e-03    1.1106526  6.256236e-03    1.0736392    1.1110938    1.1115737  6.290371e-03    1.1111967  5.787374e-03    1.1110076  5.967292e-03    1.1111187  3.820641e-02  5.496725e-03    1.1111386    1.1107294  5.979584e-03    1.1113913    1.1104627  5.682232e-03    1.1112173    1.1116379    1.1138363  5.543368e-03    1.1118864  6.103846e-03    1.1114432  4.440465e-02    1.1113308   25.0000000 1
32    0.6056439    0.6099332    1.1128930  5.992403e-03    1.1126451    1.1127493    failed    failed    failed    failed    failed    failed    failed    failed    failed    failed    failed    failed    failed    failed    failed    failed    failed    failed    failed    failed    failed    failed    failed    failed    failed    failed    failed    failed   25.0000000 1
33    0.6068570    0.6100279    1.1108827    1.1109116    1.1111944    1.1110614  5.925969e-03    1.1106154  5.894254e-03    1.1109371  5.458472e-03    1.1107924  5.277877e-03    1.1108803  1.025700e-02    1.0744082  6.153345e-03    1.0795452  5.102115e-03    1.1109098    1.1109031    0.1270465  5.162655e-03    1.1110974    1.1110324    1.1108165  5.349204e-03    1.1105282    1.1111996  5.768943e-03    1.0822592    1.1108371  6.130657e-03    1.1109037   25.0000000 1
34    0.6068492    0.6122583    1.1126519    failed    failed    failed    failed    failed    failed    failed    failed    failed    failed    failed    failed    failed    failed    failed    failed    failed    failed    failed    failed    failed    failed    failed    failed    failed    failed    failed    failed    failed    failed    failed   25.0000000 1
35    0.6074437    0.6091977    1.1126885    1.1126932  6.273640e-03    1.1100914  2.147897e-02    1.0776617    1.1124445    1.1124805  1.957944e-02  5.476721e-03    1.0808228    1.1120903  6.075957e-03    1.1076742  5.644205e-03    1.1123736    0.1576637  5.292240e-03  5.726209e-03    1.1121513  6.139337e-03    1.1124326    1.1122843  6.297177e-03  5.524021e-03  5.516737e-03  6.048344e-03    1.1125229  5.470692e-03    1.1127273    1.1124967  5.790888e-03   25.0000000 1
36    0.6071725    0.6083927  5.541100e-03  6.346693e-03  6.386109e-03    1.1124109  4.847192e-02    1.1112798  5.387102e-03  6.507224e-03  6.564343e-03  6.289903e-03    1.1125482  4.864813e-02    1.1125214    1.1131870    1.1126627    1.1127208    1.1128164    1.1125138  6.425077e-03  6.610921e-03    1.1126114    1.1127215  2.481565e-02    1.1117983  4.938376e-02    1.1126300  6.202883e-03    1.1090725    1.1125063    1.1130720  5.624835e-03  6.302500e-03   25.0000000 1
37    0.6090603    0.6075099  7.149082e-03  7.220681e-03  6.892580e-03    1.1139887  5.097636e-02    1.1121766  6.794742e-03    1.1139955    1.1143857  6.884541e-03  6.129367e-03    1.1139028  5.444320e-03    1.1132652  7.121627e-03    1.1145025  7.029921e-03    1.1137473    1.1136062  7.331638e-03    1.0675848  6.805691e-03    1.1144809  5.860266e-03    1.1129800    1.1145511  9.324172e-03  6.279311e-03    1.1140378  6.605768e-03    1.1143962  6.146705e-03   25.0000000 1
38    0.6085353    0.6080783  6.393745e-03  6.432391e-03  6.534813e-03    1.1146196    1.1054202  1.068279e-02    1.0848537    1.1131360  5.838390e-03  5.752283e-03    1.1120958  5.999587e-03    1.0968571    1.1128847    1.1133277  5.677769e-03  5.580576e-03    1.1128122  5.451087e-03    1.1127590    1.1129121    1.1133738  5.690082e-03  6.439460e-03    1.1125880  4.619973e-02  5.816477e-03    1.1126334  5.572046e-03    1.1129345  5.533130e-02  6.162436e-03   25.0000000 1
39    0.6049032    0.6052763    1.1134453    1.1136509  7.214448e-03    1.0896108  5.909001e-03    1.1108904  1.366601e-02  7.768946e-03    1.1132110  6.686595e-02    1.0778971    1.0858564    1.1128604    1.1134442  6.011394e-03  6.284301e-03    1.0722721    1.1128782    0.1611716    1.1124513    1.1132471    1.1107855  7.517979e-03    1.1126782  7.301628e-03    1.1131209  6.205642e-03  7.262148e-03    1.1133307  7.419553e-03    1.0856916  6.138034e-03   25.0000000 1
40    0.6094881    0.6012765    1.1128018  6.022682e-03  5.957933e-03  6.175891e-03    1.1127076    1.1124893  5.831458e-03  6.176888e-03  6.225808e-03    1.1123832    1.1126035    failed    failed    failed    failed    failed    failed    failed    failed    failed    failed    failed    failed    failed    failed    failed    failed    failed    failed    failed    failed    failed   25.0000000 1
41    0.6126429    0.6078897    1.1129171  5.874627e-03  5.822985e-03  6.414059e-03    1.1130971    1.1092282    1.1129004  5.638310e-03    1.1130744  5.730624e-03  4.306797e-03    1.1125589    1.1135581    1.1101051  3.442469e-02  6.572895e-03  5.630021e-03    failed    failed    failed    failed    failed    failed    failed    failed    failed    failed    failed    failed    failed    failed    failed   25.0000000 1
42    0.6086740    0.6073084    1.1117692    1.1117122  6.069687e-03    1.0768751  5.197242e-03    1.0752508    1.1114310  5.409525e-03    1.1115438    failed    failed    failed    failed    failed    failed    failed    failed    failed    failed    failed    failed    failed    failed    failed    failed    failed    failed    failed    failed    failed    failed    failed   25.0000000 1
43    0.6147789    0.6103724  7.163977e-03  7.044519e-03  7.187916e-03  7.750560e-03    1.1126113    1.1128279    1.1125247  7.246053e-03    1.1126923  7.073851e-03  7.128837e-03  7.105464e-03    1.1097430  7.407529e-03    1.0700447  7.856199e-03  6.373560e-03    1.1123760    1.1124332  6.821782e-03    1.1124494  6.332405e-03    1.1122854  5.419405e-02    1.1121879    1.1124875  6.474030e-03    1.1119642  6.693599e-03    1.1115227  1.313926e-02  7.290367e-03   25.0000000 1
44    0.6121378    0.6006398  6.137770e-03  5.834911e-03    1.1107434  5.080031e-02    1.0958006    1.1097180  5.419896e-03  5.464434e-03  5.994466e-03  6.002250e-03    1.0872956    1.1107529    1.1081187  5.588120e-03    1.1108885    1.1108984    1.1110453  6.089219e-03  4.891474e-03    1.1107002    1.1111176  5.935944e-03    1.0795876  5.433569e-03    1.1105568    1.1110860  5.862160e-03  5.235992e-03    1.1109566    1.1110528  5.976249e-03    1.1106931   25.0000000 1
45    0.6082955    0.6061711  6.178132e-03  6.293404e-03    1.1118930    1.1120062  9.490353e-02    1.1085179  5.404650e-03    1.1121506  6.107622e-03    1.0838928  4.983266e-02    1.1116708  6.329034e-03    1.1113715  5.615143e-03  6.201414e-03  1.170899e-02    1.1117398  5.292276e-03    1.0749993  5.711240e-03    1.1119076  5.539681e-03    1.1115354  5.419502e-03  5.477175e-03    1.1116442    1.1114584    1.1116838  5.234290e-03    1.1111830  5.892234e-03   25.0000000 1
46    0.6060229    0.6104956  7.210134e-03    1.1128514    1.1128235    1.1130030    1.1129927  7.208411e-03    1.1122818    1.1127369  6.135959e-03  6.137422e-03    1.1123943    1.1129609    1.1132992    1.1128455    1.1126073    1.1131654  7.212873e-03    1.0730314  6.106189e-03  6.484713e-03    1.1129174  6.051819e-03  7.437211e-03  6.520941e-03    1.1122546  5.730509e-03    1.1128916    1.1127291  3.761395e-02    1.1125380  5.356270e-02  6.767304e-03   25.0000000 1
47    0.6072742    0.6045331    1.1124060    failed    failed    failed    failed    failed    failed    failed    failed    failed    failed    failed    failed    failed    failed    failed    failed    failed    failed    failed    failed    failed    failed    failed    failed    failed    failed    failed    failed    failed    failed    failed   25.0000000 1
48    0.6030203    0.6102783  5.138369e-03    1.1114424  5.039708e-03  5.267189e-03  4.985217e-03  6.042390e-03    1.1110954    1.1115185    1.1116133    1.1116257  5.292214e-03  5.241761e-03  5.733446e-03  5.935741e-03    1.1114957  6.217155e-03    1.0733218    1.1118687    1.1115634  5.815467e-03    1.1114789  4.794772e-03  5.245627e-03    1.0813460  4.502932e-03    1.1098079  6.241111e-03    1.1115540  5.779907e-03    1.1106828  4.353088e-03    1.0829303   25.0000000 1
49    0.6128878    0.6059255  5.096010e-03    1.1121716  5.422644e-03    1.1121018  5.501243e-03    1.1118820  5.375565e-03    1.1121410  5.362770e-03    1.1120999  5.206062e-03    1.1120886  4.954325e-03    1.1122224  5.202350e-03    1.1120327  5.456916e-03    1.1121807  5.298792e-03    1.1120013  5.138654e-03    1.1120855  5.309755e-03    1.1122296  5.419623e-03    1.1117803  5.511206e-03    1.1121385  5.144894e-03    1.1119187  4.948870e-03    1.1122049   25.0000000 1
50    0.6106062    0.6112214  6.117882e-03  6.080410e-03    1.1115756    1.1097043  2.292034e-02    1.1108104    1.1109379  3.498589e-02    1.1123248  5.038545e-03  5.426623e-03    1.0782188  5.442676e-03  5.604038e-03    1.1113060  6.204939e-03    1.1118253  6.155394e-03    1.1118648  6.436728e-03    1.0794158    1.1116166    1.1121245  5.539434e-03  5.578033e-03    1.1113339    1.1120189  5.130984e-03  5.442504e-03    1.1115293    1.1122932    1.1119197   25.0000000 1
51    0.6070883    0.6022526    1.1124411  5.030936e-03  5.338698e-03  5.978055e-03    1.1121430  2.796150e-02    1.1116793  5.175362e-03  5.226310e-03    1.1122843  5.968360e-03    1.1122526  5.782169e-03    1.1125448  5.221815e-03    1.1122110  5.229613e-03    1.1056392  4.989704e-02    1.1121622  5.307509e-03    1.1124005  5.332807e-03  5.320585e-03    1.1121487  5.838273e-03    1.1123937  5.296614e-03  5.375197e-03  4.924187e-03    1.1123422  5.519892e-02   25.0000000 1
52    0.6053221    0.6114555  5.871350e-03  6.503065e-03  6.261987e-03    1.1121424    0.1604567    1.0758044  6.010523e-03    1.1057921    1.1125118  5.987347e-03    1.1095730  4.659103e-02    1.1120841  4.237125e-02  4.513555e-02  6.729676e-02  5.873369e-03    1.1120156  6.672064e-03  6.528355e-03    1.1140475  6.007682e-03    1.0711379  1.519828e-02  5.871514e-03    1.1114251  5.856427e-03  6.493221e-03    1.1117050    1.1116680  4.553229e-02  6.156726e-03   25.0000000 1
53    0.6173652    0.6104615    1.1125115    1.1122227  6.477779e-03    1.0739200    1.1055672  5.951294e-03    1.1111830  5.610565e-03  6.190804e-03  5.722667e-03    1.1123126    failed    failed    failed    failed    failed    failed    failed    failed    failed    failed    failed    failed    failed    failed    failed    failed    failed    failed    failed    failed    failed   25.0000000 1
54    0.6143541    0.6049502    1.1135069    1.1135667    1.1136237    1.1134784    failed    failed    failed    failed    failed    failed    failed    failed    failed    failed    failed    failed    failed    failed    failed    failed    failed    failed    failed    failed    failed    failed    failed    failed    failed    failed    failed    failed   25.0000000 1
55    0.6105443    0.6108403  6.752235e-03    1.1122804    1.1121902    1.1125065  6.664217e-03    1.1119516  5.991065e-03  6.171588e-03    failed    failed    failed    failed    failed    failed    failed    failed    failed    failed    failed    failed    failed    failed    failed    failed    failed    failed    failed    failed    failed    failed    failed    failed   25.0000000 1
56    0.6045197    0.6091277  6.898274e-03  7.067035e-03  7.061381e-03  7.058822e-03  6.797924e-03  7.046787e-03    1.1124335    1.1125851  6.068503e-03    1.1121522  6.145904e-03  6.232716e-03    1.1122230    1.1123737  6.227571e-03    1.1123081  6.862395e-03  1.518956e-02    1.1120229  5.977377e-03    1.1121394  7.152418e-03  7.167187e-03  1.739012e-02    1.1120672  6.207810e-03    1.1120951  6.841825e-03    1.1121146  6.155419e-03  6.669435e-03    1.1122046   25.0000000 1
57    0.6066334    0.6031370  6.762806e-03  6.739847e-03  6.723449e-03    1.1096777  6.093992e-03    1.0917909    1.1127388    1.1127966    1.1126314  6.716274e-03    1.1121879  6.214558e-03    1.1119796    1.1126996  6.892980e-03    1.1127662  6.816365e-03    1.1064818    1.1128383  4.133485e-02  5.945115e-03    1.1125565    1.1126495  6.885853e-03    1.1123501  8.592397e-03  7.106780e-03    1.1117116  1.716691e-02  7.091679e-03    1.0778105  6.304524e-03   25.0000000 1
58    0.6065101    0.6114599    1.1129494    1.1131595  7.347101e-03    1.1115056    0.1097404    1.1078382    1.1129225    1.1130260  6.277636e-03  7.623521e-03    1.1127085  9.235633e-03  7.518206e-03    1.1129072  6.525110e-03  7.476023e-03    1.1125015    1.1128383  6.547793e-03    1.1126657    1.1128275  6.444479e-03    1.1125315  7.162812e-03    1.1124284  7.198945e-03    1.1124801  7.826064e-02  7.261231e-03  6.329816e-03    1.1130910  6.449879e-03   25.0000000 1
59    0.6055702    0.6168926  6.333384e-03    failed    failed    failed    failed    failed    failed    failed    failed    failed    failed    failed    failed    failed    failed    failed    failed    failed    failed    failed    failed    failed    failed    failed    failed    failed    failed    failed    failed    failed    failed    failed   25.0000000 1
60    0.6117928    0.6058835    1.1134846    1.1137721    1.1137463  6.374723e-03    1.1133220  5.624039e-03    1.0768378    1.1026558    1.1149376    1.0969062  8.479424e-02    1.1130211  6.223099e-03  6.538703e-03  6.539038e-03  6.250155e-03    1.1133841    1.1133865  6.489961e-03    1.1130915    1.1135910  5.502439e-03    1.1109251    1.1135353    1.1145612  5.824203e-03    1.1130088  4.877139e-03    1.1128620    1.1135747  6.441133e-03    1.1136336   25.0000000 1
61    0.6057700    0.6061377    1.1131434  6.200489e-03    1.1123147  6.132263e-03    1.1125783    1.1130482  6.032401e-03  6.508052e-03    1.1130795  7.015441e-03    failed    failed    failed    failed    failed    failed    failed    failed    failed    failed    failed    failed    failed    failed    failed    failed    failed    failed    failed    failed    failed    failed   25.0000000 1
62    0.6119067    0.6050019  5.695978e-03  5.546734e-03    1.1109863    0.1516010    1.1098470  4.335140e-02    1.1102361  3.244857e-02    1.1113930  4.953606e-03    1.1052357  5.934080e-03  4.820167e-03  5.401910e-03  5.593731e-03    1.1112999  1.828588e-02    1.1110109  5.247208e-03    1.0849681  5.146103e-03  5.826363e-03    1.0753938  5.378240e-03    1.1104070  4.948991e-03  5.746950e-03    1.1128885    1.1108710    1.1127455  5.038025e-03    1.1045004   25.0000000 1
63    0.6063563    0.6086543    1.1128182    1.1128614    1.1122475    1.1128237  7.387121e-03  6.526347e-03    1.1127678  6.398278e-03  6.572583e-03  7.527825e-03    1.1131003  6.579041e-03  6.188594e-03    1.1121779  7.365576e-03    1.1125801  7.403351e-03  6.396386e-03    1.1126600  6.116295e-03    1.1121041    failed    failed    failed    failed    failed    failed    failed    failed    failed    failed    failed   25.0000000 1
64    0.6034728    0.6050140    1.1116938    failed    failed    failed    failed    failed    failed    failed    failed    failed    failed    failed    failed    failed    failed    failed    failed    failed    failed    failed    failed    failed    failed    failed    failed    failed    failed    failed    failed    failed    failed    failed   25.0000000 1
65    0.6059824    0.6139160    1.1122370    1.1121930  6.889248e-03  6.154049e-03    1.0856985    1.1118147  7.079983e-03    1.1124546  7.282493e-03    1.1123937  6.277936e-03    1.0867893  5.938746e-03    1.0872474  5.278412e-02    1.1126655    1.1120588  7.274243e-03    1.0764868  6.329522e-03    1.1117811  6.041868e-03  6.844017e-03    1.1119968  5.561430e-03    1.1117709  6.043342e-03    1.1117468    1.1120843    1.1120373    1.0974812  6.242939e-03   25.0000000 1
66    0.6080074    0.6050531    1.1118122  5.561919e-03    1.1113527  5.083619e-03    1.1112862  2.077972e-02    1.0766019    1.1116449    1.1120022  5.493866e-03    1.1112113    1.1120489    1.1118729  4.874844e-03    1.1115901  5.699723e-03    1.1112700  5.359511e-03    1.1117213  7.735139e-02    1.1115787  5.529048e-03    1.0742580  5.140631e-03    1.0780710  5.171534e-03    1.1111196  4.686903e-03    1.1116598  5.565858e-03  5.243241e-03    1.1104444   25.0000000 1
67    0.6104247    0.6083269  6.622889e-03    failed    failed    failed    failed    failed    failed    failed    failed    failed    failed    failed    failed    failed    failed    failed    failed    failed    failed    failed    failed    failed    failed    failed    failed    failed    failed    failed    failed    failed    failed    failed   25.0000000 1
68    0.6049073    0.6101040    1.1125637    1.1121822  6.538661e-03    1.1016592  5.699751e-03    1.0858163  5.257493e-03  5.778277e-03    1.1124330  5.973928e-03    1.1117792  5.629427e-03    1.1122284  5.477457e-03  5.818546e-03    1.1120397  5.938128e-03    1.1117997  5.886429e-03    1.1120812  5.472330e-03  5.537166e-03    1.1119989  5.846450e-03    1.1120526  5.643402e-03    1.1122267  5.763031e-03  5.474067e-03    1.1119239  6.007793e-03    1.1118640   25.0000000 1
69    0.6061693    0.6070679  6.478628e-03    1.1122293    1.1121791    1.1122901    1.1119715  6.385232e-03    1.0743139    1.1122776    1.1126352  5.826168e-03    1.1120121  6.412295e-03  6.400471e-03    1.1122283  5.917737e-03    1.0712967  5.807308e-03    1.1121625    1.1120765    1.1126647  6.485605e-03    1.1121373  6.346059e-03    1.1136790  5.371834e-03    1.1121562  6.279999e-03    1.0804371  1.035947e-03    1.1118319    1.1122729    1.1120888   25.0000000 1
70    0.6030668    0.6109811  6.373816e-03  6.160278e-03    1.1114339  6.356096e-03    1.1115665    1.1115574  5.379350e-03  6.655753e-03  6.263127e-03    1.1113930  2.186006e-02    1.1114333  6.386465e-03    1.1112750  6.465912e-03    1.1114136  5.604577e-03    1.1116182  5.560591e-03    1.1116339  5.539071e-03    1.1117071  5.704269e-03    1.1116979  5.540466e-03    1.1116466  5.540381e-03    1.1116684  5.574359e-03    1.1116370  5.432110e-03    1.1116018   25.0000000 1
71    0.6120515    0.6129826  6.223923e-03  5.783035e-03  6.164922e-03    1.1112216  5.624428e-03    1.1097466    1.1053146    1.1033434    1.0992857    1.0998807    1.1014412    1.1009231    1.1017847    1.1016359    1.1033065    1.1051493    1.1038505    1.1019793    1.1038505    1.1052896    1.0969754    1.0981066    1.1029190    1.1037736    1.0971352    1.1008564    1.1047038    1.1040855    1.0996635    1.0986242    1.1013765    1.0973422   25.0000000 1
72    0.6106924    0.6077362    1.1121603    failed    failed    failed    failed    failed    failed    failed    failed    failed    failed    failed    failed    failed    failed    failed    failed    failed    failed    failed    failed    failed    failed    failed    failed    failed    failed    failed    failed    failed    failed    failed   25.0000000 1
73    0.6036435    0.6114358    1.1123545    1.1123004    1.1122477  5.576642e-03    1.0673046    1.0720089    1.0767684  4.420138e-03  6.658929e-03    1.0727444  1.606025e-02    1.1123378    1.1122432  5.735993e-03    1.0949845  5.698579e-03    1.1095568  4.799258e-03  4.733384e-03  5.173056e-03    1.0850788  5.541682e-03    1.1125093  4.922188e-03  4.977989e-03    1.1117089    1.1120372  4.532116e-03  5.270573e-03  5.001607e-03  4.667570e-03    1.1115935   25.0000000 1
74    0.6082299    0.6142311    1.1112840    failed    failed    failed    failed    failed    failed    failed    failed    failed    failed    failed    failed    failed    failed    failed    failed    failed    failed    failed    failed    failed    failed    failed    failed    failed    failed    failed    failed    failed    failed    failed   25.0000000 1
75    0.6063610    0.6092441  6.617210e-03  6.536682e-03    1.1121879  3.960153e-02    1.1121960  4.917547e-02  6.557658e-03  6.678781e-03    1.1125704    1.1125486  6.614417e-03  5.599092e-03  6.004647e-03  5.856311e-03    1.1121463    0.1674646    1.1128132  6.744228e-03    1.1115715  1.022563e-02    1.1122548  5.133722e-02    1.1121844  5.960777e-03    1.1120614  5.951112e-03    1.1123080  6.621666e-03    1.1121346    1.1126659    1.1125898    1.1039438   25.0000000 1
76    0.6009355    0.6016584    1.1123662    failed    failed    failed    failed    failed    failed    failed    failed    failed    failed    failed    failed    failed    failed    failed    failed    failed    failed    failed    failed    failed    failed    failed    failed    failed    failed    failed    failed    failed    failed    failed   25.0000000 1
77    0.6122243    0.6111963  6.847936e-03    1.1124799    1.1126960    1.1091578  6.102327e-03    1.1118418  2.351298e-02    1.0777587  6.832584e-03    1.1124922  6.149015e-03    1.1123993  7.059592e-03  6.032588e-03    1.1123488  6.746752e-03    1.1119845  7.036960e-03    1.1123982  6.928655e-03  6.759704e-03    1.1124915    1.1125557  6.847486e-03  6.812997e-03    1.1120010  7.067536e-03  5.991690e-03    1.1122360  6.989177e-03    1.1122369  6.665150e-03   25.0000000 1
78    0.6095340    0.6069173    1.1126253  6.092390e-03    1.1119425  5.457253e-03    1.1092885  6.137271e-03    1.1121689    1.1128679  6.167700e-03  5.346503e-03  6.295578e-03  6.282800e-03    1.1126743  5.830497e-03    1.1123047  5.179662e-03    1.1124023    1.1122899  6.050240e-03    1.1122700    1.1126961  5.298118e-03    1.1128247  3.249114e-02    1.1124117  6.398482e-03    1.1123186  6.034329e-03    1.1124681  5.656047e-03  4.261472e-03    1.1120982   25.0000000 1
79    0.6139119    0.6050068  6.361339e-03  6.224625e-03  6.364687e-03    1.1142874  5.607736e-03    1.1117801    0.1556554    1.1124276  5.520079e-03    failed    failed    failed    failed    failed    failed    failed    failed    failed    failed    failed    failed    failed    failed    failed    failed    failed    failed    failed    failed    failed    failed    failed   25.0000000 1
80    0.6019060    0.6090475  6.839745e-03    1.1131082  6.234008e-03    1.1123175    0.1070573    1.1129253  6.983600e-03    failed    failed    failed    failed    failed    failed    failed    failed    failed    failed    failed    failed    failed    failed    failed    failed    failed    failed    failed    failed    failed    failed    failed    failed    failed   25.0000000 1
81    0.6154501    0.6147229    1.1132271  6.990301e-03    1.1131217  6.015962e-03  6.921917e-03  6.485863e-03  6.797661e-03    1.1128336  7.127049e-03  6.956747e-03    1.1153631  6.954275e-03    1.1128788  5.992889e-03    1.1129034  4.187080e-02    0.1513476  1.502955e-02  5.649196e-03    1.0776493    1.0721939  3.217325e-03  6.182297e-03  1.478524e-02  1.531040e-02    1.0767215  7.023664e-03    1.1128939    1.1132486    1.1135570  6.120289e-03  6.139229e-03   25.0000000 1
82    0.6119685    0.6076338    1.1128996    1.1127859    1.1130562    1.1129006    1.1129003  5.884707e-03    1.1127822  6.121239e-03    1.1129002  6.765618e-03    1.1144969  5.888585e-03    1.0750999  6.099684e-03    1.1126371  5.891525e-03  3.101856e-03    1.1125005    1.1143720  5.977967e-03    1.1128482  5.960339e-03    1.1127633    1.1127948  4.399743e-02  5.976601e-03    1.1123103    1.1130806    0.1324508    1.1125501  6.740763e-03    1.1127990   25.0000000 1
83    0.6030080    0.6119694  7.350415e-03    1.1129859    1.1142808  5.877363e-03    1.1129720  6.087843e-03  6.207148e-03  6.423493e-03    1.1094369    1.1140738  6.415751e-03    1.1134245  7.308894e-03  7.216887e-03    1.1134312  1.607239e-02    1.1140494  6.194561e-03    1.1131024    1.1136481  7.214856e-03  6.277239e-03  6.004222e-03    1.1133288  7.524213e-03    1.1133423  7.311635e-03    1.1064350    1.1133262  4.393455e-02  6.269568e-03    1.1132724   25.0000000 1
84    0.6105949    0.6087398  5.695504e-03  6.672569e-03  6.565034e-03    1.1108134    1.1122158    1.1125436  5.684394e-03  6.624101e-03  6.679815e-03  6.655439e-03    1.1122548  6.582860e-03    1.1121756  6.496085e-03    1.1118129    1.1111999  6.580082e-03    1.1121974  5.686575e-03    1.1120916  5.307907e-02    1.1122037  5.957496e-03  5.634089e-03    1.1118359  6.614547e-03  6.507734e-03    1.1122796  6.397279e-03    1.1112372  5.577755e-03    1.1121526   25.0000000 1
85    0.6058123    0.6076679    1.1135023    1.1136364  6.890460e-03    1.0787157    1.1131187  6.903494e-03    1.0758140  7.016246e-03    1.1131330  5.418378e-02    1.1132717  5.684171e-03    1.1127830    1.1133755    1.1129696  6.765376e-03  6.891685e-03    1.1130870  7.093908e-03  6.746205e-03    1.1129795    0.1479488  6.320529e-03    1.1131543    1.1132585    1.1130030  6.141625e-03    1.1125732    1.1134120  6.990706e-03    1.0752656  5.946980e-03   25.0000000 1
86    0.6123072    0.6141273    1.1123355    failed    failed    failed    failed    failed    failed    failed    failed    failed    failed    failed    failed    failed    failed    failed    failed    failed    failed    failed    failed    failed    failed    failed    failed    failed    failed    failed    failed    failed    failed    failed   25.0000000 1
87    0.6078776    0.6069393  6.355521e-03  5.309607e-03  5.511024e-03  5.640948e-03    1.1127187  5.547174e-03  6.116795e-03    1.0710946    failed    failed    failed    failed    failed    failed    failed    failed    failed    failed    failed    failed    failed    failed    failed    failed    failed    failed    failed    failed    failed    failed    failed    failed   25.0000000 1
88    0.6098002    0.6054889    1.1124931  6.165097e-03    1.1119665  5.775456e-03  6.209589e-03    1.1118420  6.047177e-03  6.471242e-03    failed    failed    failed    failed    failed    failed    failed    failed    failed    failed    failed    failed    failed    failed    failed    failed    failed    failed    failed    failed    failed    failed    failed    failed   25.0000000 1
89    0.6103267    0.6061428    1.1120102    1.1121111    1.1122586    1.1121025    1.1123203    1.1118506    1.1121281  5.682446e-03  6.199753e-03    1.1123202  4.161017e-02    1.1117533  2.656988e-02    1.0727894  6.486595e-03    1.1119173  4.840660e-02  5.877839e-03  6.122845e-03  5.385648e-03    1.1118787  5.352958e-03  4.973997e-03    1.1118122    1.1122621  6.294563e-03    1.1118242  5.234943e-03    1.1122847  5.328239e-03  5.183158e-03    1.1055258   25.0000000 1
90    0.6035527    0.6041765    1.1128631    1.1127359    1.1128737    failed    failed    failed    failed    failed    failed    failed    failed    failed    failed    failed    failed    failed    failed    failed    failed    failed    failed    failed    failed    failed    failed    failed    failed    failed    failed    failed    failed    failed   25.0000000 1
91    0.6036278    0.6040783    1.1124186    failed    failed    failed    failed    failed    failed    failed    failed    failed    failed    failed    failed    failed    failed    failed    failed    failed    failed    failed    failed    failed    failed    failed    failed    failed    failed    failed    failed    failed    failed    failed   25.0000000 1
92    0.6064197    0.6055658  5.860541e-03  5.675891e-03    1.1122843  9.192615e-02    1.1124570  4.478719e-02  5.863787e-03  5.807384e-03    1.1123733    1.1122710  6.003497e-03  5.020335e-03    1.1110463  6.035199e-03  5.235008e-03    1.1117757  5.387507e-03    1.1120870  4.852759e-03  4.944078e-03  5.145848e-03    1.1124322  5.092353e-02  4.940794e-03    1.1125232    1.1122135  4.878359e-03    1.1121107    1.1125126  5.787837e-03    1.1120329  5.687715e-03   25.0000000 1
93    0.6105584    0.6103573  5.696148e-03  5.625306e-03  5.642558e-03  6.580609e-03  6.535100e-03  6.610502e-03  6.645823e-03    1.1130224  5.799645e-03    1.1118524  6.504015e-03  6.584206e-03    1.1121559  5.978516e-03  6.008087e-03    1.1150534    1.1125997  5.887197e-03  5.948295e-03  5.679269e-03    1.1130443  5.898673e-03    1.1123602  6.081784e-02    1.1123017    1.1127154  6.594576e-03  8.089963e-03    1.1128045  5.948224e-03  6.296932e-03    1.1131183   25.0000000 1
94    0.6077093    0.6043014    1.1125239    1.1123245  6.789015e-03    1.0832895  5.485801e-03    1.1117938    1.1055429  5.483645e-03    1.0792996  1.376731e-02  7.122821e-03  6.817866e-03    1.1119051    1.1123138  6.736284e-03    1.1119576    1.1099561  5.950110e-03    1.1122425  6.666882e-03    1.1123348  5.817312e-03  5.627122e-03    1.1123791    1.1127408    1.1100334  6.150592e-03  6.624773e-03    1.0750641  6.971655e-03    1.1123315  5.835417e-03   25.0000000 1
95    0.6116473    0.6047167  6.693100e-03  5.758507e-03  6.437628e-03  6.409922e-03  6.859802e-03  6.638370e-03    1.1123334  5.703737e-03    1.1120241  1.067925e-02  6.555827e-03    1.1118175    0.1623292    1.1142627  2.472933e-02  4.636946e-03    1.1117667    1.1114028  5.640079e-03    1.1121921    1.1121652  6.552824e-03    1.1122100  6.727203e-03    1.1124873  4.744875e-02  5.843916e-03    1.1115916    1.1128108  6.853582e-03    1.0729579    1.0792697   25.0000000 1
96    0.6119713    0.6172120    1.1119901  5.648291e-03  5.356699e-03  6.150792e-03  6.174712e-03  6.325567e-03  6.113989e-03    1.1117035    1.1120908    1.1120284  6.185878e-03  5.808485e-03    1.1113082  6.145702e-03    1.1112504    1.1121698  6.373377e-03    1.0778366  6.331477e-03  6.102498e-03    1.1116055  6.236409e-03  6.133963e-03    1.1116851    1.1118531    1.1116387  5.886439e-03    1.1114842    1.1120576  6.341423e-03  6.085946e-03    1.1114825   25.0000000 1
97    0.6144076    0.6041183  6.318002e-03  5.518409e-03    1.1118434    1.1116671  6.014977e-03    1.0887571    1.1119062  6.398503e-03    1.1119437    1.1118678  5.342358e-03    1.1119406    1.1118173    1.1123656    1.0992715    1.1003417    1.0983667    1.0994779    1.0991399    1.0978625  3.387957e-02  5.455179e-02  4.833456e-02  5.438149e-02    1.1115287    1.1118105    1.1125387  6.574429e-03    failed    failed    failed    failed   25.0000000 1
98    0.6057928    0.6093735  6.853883e-03    failed    failed    failed    failed    failed    failed    failed    failed    failed    failed    failed    failed    failed    failed    failed    failed    failed    failed    failed    failed    failed    failed    failed    failed    failed    failed    failed    failed    failed    failed    failed   25.0000000 1
99    0.6119421    0.6128346    1.1116584  6.245422e-03    1.1110389  6.209292e-03    1.1112749    1.1117932  5.574095e-03    1.1115115  6.528219e-03    1.1113732  5.750661e-03  6.262586e-03    1.1117845    1.1116817    1.1112943  6.572950e-03    1.0743049  6.221332e-03    1.1099274    1.1115056    0.1654570    1.1117469  6.445022e-03    1.1093419    1.1114381    1.1115839  5.408785e-03    1.1113880  6.166411e-03    1.1112730    1.1113525    1.1117270   25.0000000 1
100    0.6091371    0.6154493    1.1120119    failed    failed    failed    failed    failed    failed    failed    failed    failed    failed    failed    failed    failed    failed    failed    failed    failed    failed    failed    failed    failed    failed    failed    failed    failed    failed    failed    failed    failed    failed    failed   25.0000000 1
101    0.6104755    0.6160332    1.1119546  5.296883e-03  5.889126e-03  5.939894e-03    1.1115901  2.463129e-02    1.1112119  3.724480e-02    1.0999552  4.918032e-02    1.0953982  4.818465e-02  4.993649e-02  4.625746e-02  4.817839e-02  4.725693e-02  5.531287e-02  4.970243e-02  4.708262e-02  4.784265e-02  6.853062e-02    1.0954992  4.959482e-02  4.984330e-02  4.962134e-02  4.760603e-02  4.902371e-02  5.334688e-02  4.994519e-02  4.760903e-02  5.988368e-02    1.0946500   25.0000000 1
102    0.6067889    0.6085325  6.760425e-03  6.628282e-03    1.1114641    1.1119586    1.1119476    1.1119685  6.705847e-03    1.0761654  6.877276e-03    1.1115518  6.548269e-03    1.1114313  5.983779e-03    1.1115677  6.685756e-03    1.1135350  6.728059e-03    1.1112566  6.431819e-03    1.1114245    1.1109190  6.685619e-03    1.1114847    1.1094120  5.559736e-03    1.1117156  5.693703e-03    1.1116213  5.490135e-03    1.1111967    1.1116812    1.1117206   25.0000000 1
103    0.6047383    0.6120689    1.1122975  6.750683e-03  6.902488e-03  6.752851e-03    1.1121587  6.437224e-03    1.0730051    1.1121907    1.1122898  6.067180e-03  6.270117e-03    1.1120504  6.592153e-03    1.1117735  5.310724e-03    1.1119600  4.671657e-02    1.1119780    1.1118545  5.841802e-03  7.106415e-03    1.1125361    failed    failed    failed    failed    failed    failed    failed    failed    failed    failed   25.0000000 1
104    0.6062975    0.6087902  5.716019e-03  5.813064e-03    1.1121022  6.336091e-03  6.377173e-03  6.432739e-03  6.447141e-03    1.1123274    1.1093989    1.1123713  6.370329e-03    1.1122981  6.348783e-03    1.1120125  5.733894e-03  5.719364e-03    1.1118892  1.403380e-02  5.729255e-03    1.1121494  5.385286e-03    1.1122179    1.1116664  6.228858e-03  5.346077e-03    1.1119176  5.715046e-03  5.856478e-03    1.1118801  5.643256e-03    1.1123162  6.210842e-03   25.0000000 1
105    0.6042222    0.6116794    1.1124050  5.319630e-03  5.733035e-03    1.1121559    1.1124617    1.1125445  6.043520e-03    1.0834535  5.281718e-03    1.0716984    1.1120881  2.517117e-02    1.0783123  1.253083e-02    1.0738442    1.0873559    1.1123639    1.1123070  5.460210e-03  5.718892e-03    1.1120771  6.267746e-03    1.1120965    1.1135682  5.847885e-03    1.1125452  5.234710e-03  5.478397e-03    1.1122761  5.175917e-03    1.1120827    1.1121800   25.0000000 1
106    0.6144851    0.6043947    1.1128042  6.907221e-03    1.0803538  5.767207e-03    1.0736185  6.073601e-03  6.752351e-03  7.048860e-03    1.0717084  6.325569e-03    1.1126629  6.622554e-03    1.1121747  6.756093e-03    1.1123988  6.765440e-03  6.651780e-03    1.1121527  6.218522e-03    1.1122590    1.1124578  7.206678e-03    1.1124333  6.944840e-03    1.1125913    1.1124758    1.1126200    1.1134343  6.889739e-03    1.1123069  6.160626e-03    1.1123802   25.0000000 1
107    0.6072480    0.6111679  6.722712e-03    failed    failed    failed    failed    failed    failed    failed    failed    failed    failed    failed    failed    failed    failed    failed    failed    failed    failed    failed    failed    failed    failed    failed    failed    failed    failed    failed    failed    failed    failed    failed   25.0000000 1
108    0.6082335    0.6128977  5.917612e-03    1.1121922    1.1121179    1.1116530  6.260919e-03    1.1098920    1.1101704    1.1126359  5.139410e-03    1.1120170  8.277891e-02    1.1123348  4.995571e-03  5.752560e-03    1.1109904  6.054259e-03    1.1117910  5.030351e-03    1.1115905    1.1123776  5.901237e-03  4.957866e-03  6.062452e-03  5.799610e-03    1.1121917  5.706781e-03  1.046645e-02    1.1115698  4.974748e-03    1.1117824  5.602027e-03    1.0978027   25.0000000 1
109    0.6124442    0.6091778  6.065130e-03  6.246538e-03    1.1122958  6.955099e-03    1.1068790    0.1339663  3.878389e-02    1.0719011  5.733327e-03  5.419673e-03  6.189747e-03    1.1123715  5.262446e-03    1.1121374  4.857885e-03    1.1118440    1.1121180  5.987996e-03    1.1131933  6.452396e-03    1.0746574    1.1117835  5.565096e-03  5.542958e-03  5.727721e-03    1.1119207    1.1121610  3.438686e-02    1.1117418  6.018672e-03  1.568417e-02    1.1117416   25.0000000 1
110    0.6129482    0.6073887  6.998125e-03  7.017168e-03  7.035649e-03    1.1130505  8.452188e-03    1.1118909  5.063096e-02  6.921472e-03  7.453864e-03  7.091369e-03    1.0995796    1.1132803  7.103142e-03  6.108368e-03    1.1130084    1.1133253  5.915727e-03    1.1118412    1.1131936    1.1135730  5.861856e-03    1.1122568    1.1134915    1.1136856  7.061810e-03    1.1130144  1.367863e-02  6.274404e-03    1.1131330  5.934670e-03    1.1131158  7.139698e-03   25.0000000 1
111    0.6102023    0.6078000    1.1125503    1.1124525  6.070130e-03  6.228520e-03    1.1126842    1.1128656    failed    failed    failed    failed    failed    failed    failed    failed    failed    failed    failed    failed    failed    failed    failed    failed    failed    failed    failed    failed    failed    failed    failed    failed    failed    failed   25.0000000 1
112    0.6085644    0.6072955    1.1126381    1.1125462    1.1125458    1.1126878  6.452808e-03  6.666879e-03  5.368753e-03  5.807147e-03    1.1125036    1.1127178  6.803201e-03    1.1112681    1.1123237  6.053807e-03    1.1121114  6.607140e-03    1.1130590  6.646460e-03  8.217860e-03    1.1120393  6.587929e-03    1.1123615  1.891012e-02    1.1125255    1.1124982  5.705734e-03    1.1121882    failed    failed    failed    failed    failed   25.0000000 1
113    0.6084789    0.6132593    1.1123721    failed    failed    failed    failed    failed    failed    failed    failed    failed    failed    failed    failed    failed    failed    failed    failed    failed    failed    failed    failed    failed    failed    failed    failed    failed    failed    failed    failed    failed    failed    failed   25.0000000 1
114    0.6120863    0.6096274  6.517280e-03  6.654159e-03    failed    failed    failed    failed    failed    failed    failed    failed    failed    failed    failed    failed    failed    failed    failed    failed    failed    failed    failed    failed    failed    failed    failed    failed    failed    failed    failed    failed    failed    failed   25.0000000 1
115    0.6111635    0.6082802  5.968927e-03  5.996247e-03  5.829648e-03  6.435343e-03    1.1122613    1.1095792    1.1120030    1.1122634    1.1120563  6.413528e-03    1.1119134  5.735615e-03    1.1114640  5.895472e-03  5.710592e-03    1.1116097  6.081858e-03    1.1117462    1.1134781  6.480452e-03    1.1116547  1.058802e-02    1.1113970    1.1115121    1.1118597  1.786445e-02    1.0724725  6.363327e-03    1.1116208  8.162417e-03    1.1118377    1.1123067   25.0000000 1
116    0.6098316    0.6119905  6.425218e-03    1.1113944  5.440890e-03    1.1114544    1.1115441    1.1118003    1.1114322  6.634288e-03    1.1118020  6.377918e-03    1.1116467  6.680162e-03    failed    failed    failed    failed    failed    failed    failed    failed    failed    failed    failed    failed    failed    failed    failed    failed    failed    failed    failed    failed   25.0000000 1
117    0.6058326    0.6083545    1.1120327  6.095650e-03    1.0706088    1.1120929  4.848951e-03    1.0732765    1.1119498    1.1122092  5.286439e-03    1.0693157  1.523998e-02  6.338693e-03  5.229526e-03    1.0760494  4.107778e-03    1.1115547  6.060193e-03  6.371880e-03    1.1122821  7.000694e-02    1.1116330  6.079161e-03    1.1119213  6.028988e-03    1.1118253  8.388564e-02  5.147755e-03    1.1120736  6.164808e-03  3.156924e-03    1.1117516  4.911727e-02   25.0000000 1
118    0.6137731    0.6106163  5.834857e-03  7.097935e-03  7.087859e-03    1.1131618    0.1032657    1.1115791  6.694486e-03    1.1127139    1.1123320    1.1126547    1.1125125  7.069163e-03    1.1121304  8.444840e-03  7.152232e-03    1.0986691  7.242223e-03    1.1122807    1.1125146  7.071819e-03    1.1125158  6.852512e-03  5.946600e-03  6.222315e-03    1.1123426  3.657479e-02    1.1127820  5.598950e-03  7.111304e-03    1.1100716  7.059892e-03    1.0708352   25.0000000 1
119    0.6118625    0.6105396    1.1125393    1.1128799    1.1128893  5.634777e-03    1.1128018  5.991370e-03    1.1129396    1.1128088  1.709062e-02    1.1124709  1.667760e-02    1.1110995    1.1128529  5.942337e-03  7.132091e-03    1.1130756  6.879432e-03    1.1121850  7.420636e-03  7.150561e-03    1.0998108    1.1134339  6.637316e-03    1.1118658    1.1129582    1.1129281  6.888087e-03  6.487271e-03    1.1124558  6.866347e-03    1.1126953  6.911946e-03   25.0000000 1
120    0.6105155    0.6079936    1.1117320  5.149433e-03  5.510471e-03    1.1117527    1.1117579  5.527692e-03  5.434654e-03    1.1118095    1.1120890  5.155061e-03  5.436084e-03    1.1119278    1.1118464  5.411989e-03  5.486853e-03    1.1119498    1.1121398  5.472403e-03  5.563815e-03    1.1117971    1.1121712  5.280064e-03  5.426009e-03    1.1119080    1.1121256  5.268711e-03  4.936486e-03    1.1120037    1.1118240  5.287086e-03  5.434843e-03    1.1119402   25.0000000 1
121    0.6042593    0.6082506    1.1132584    1.1129929    1.1132829  6.161769e-03  6.058121e-03  5.900261e-03  5.675724e-03    1.1130431    1.1131316    1.1129338    failed    failed    failed    failed    failed    failed    failed    failed    failed    failed    failed    failed    failed    failed    failed    failed    failed    failed    failed    failed    failed    failed   25.0000000 1
122    0.6099653    0.6065716    1.1127485  6.689415e-03  6.677184e-03  6.682351e-03  5.962483e-03    1.1122855  6.681391e-03  6.936013e-03  6.758295e-03    1.1125854  6.542701e-03    1.1121819  6.515858e-03    1.1124516    1.1148014  6.667954e-03    1.1122910  6.660792e-03    1.1121449  9.235419e-02    1.0848511    1.1127871  6.290051e-03    1.1125635  6.935329e-03  4.624052e-03    1.1122729  6.825911e-03    1.0712980    1.1124021  6.521515e-03  6.799181e-03   25.0000000 1
123    0.6092061    0.6079641  7.176710e-03  6.946327e-03    1.1135747  6.421671e-03    1.1118356  4.315735e-02  7.180126e-03  6.969505e-03    1.1132203    1.1133159  6.063550e-03    1.1130361  8.037279e-03    1.1135405  5.991225e-03    1.1109456    1.1136074  1.371528e-02    1.1131476  6.252604e-03    1.1125350  6.055972e-03    1.1128781    1.1130849    0.1233162  6.014227e-03    1.1129620  7.003036e-03  1.672350e-02  6.731300e-03  7.233692e-03    1.1132171   25.0000000 1
124    0.6131012    0.6079601    1.1116657    1.1117919  6.644686e-03    1.0797115    1.1114732    1.1117992    1.1100522    1.1117365    1.1119618  7.039419e-03  6.135995e-03  7.065907e-03    1.1119776    failed    failed    failed    failed    failed    failed    failed    failed    failed    failed    failed    failed    failed    failed    failed    failed    failed    failed    failed   25.0000000 1
125    0.6134610    0.6125254  6.706730e-03    1.1091027  7.945467e-03    1.0775901    1.0726408  3.788737e-03  6.567756e-03  6.641642e-03    1.1123448  4.962159e-02    1.1121782  6.000624e-03    1.1110376  3.505785e-02    1.1124156  6.238525e-03    1.1120175  6.631954e-03    1.1116305    1.1123048    1.1123329  6.826923e-02  1.723059e-03    1.1118760  7.791793e-03    1.1121760  5.752805e-03    1.0855733  6.909001e-03    1.1124182  5.531639e-03  5.967161e-03   25.0000000 1
126    0.6099941    0.6127094  6.098620e-03    1.1118625    0.1238552    1.1117419  5.126997e-02  6.099077e-03  6.021034e-03  5.464216e-03    1.1120024    1.1119202  6.137791e-03    1.1106444  5.001979e-03    1.0770250  5.456771e-03    1.1116692  6.097204e-03    1.1111518    1.1117671    1.1118447    1.1037117  5.526174e-03    1.1114667  5.732081e-03    1.1120038    1.1108989  5.443955e-03    1.1120300    1.1124777    1.1089937    1.1118345  5.291996e-03   25.0000000 1
127    0.6061548    0.6127450    1.1124638    1.1122014  5.211656e-03    1.1120732    1.1124634    1.1125807    1.1125805  5.830424e-03  5.724572e-03    1.1123947    1.1121452  5.728614e-03  5.393915e-03  6.000034e-03    1.1123403    1.1125252    1.1125734  5.875793e-03  5.469416e-03    1.1120565  6.213040e-03    1.1118273  6.175152e-03    1.1119510  5.917267e-03    1.1119037  6.211832e-03  6.428403e-03  5.481050e-03    1.1113551    1.1120156    1.1126120   25.0000000 1
128    0.6023631    0.6186419  5.404790e-03  6.230955e-03    1.1125051    1.1124046  2.876730e-02  6.581541e-03    1.0740590  6.780904e-03    1.1109456    1.1128285    1.1126483    1.1128124  6.716594e-03    1.1125861  6.510999e-03    1.1113329  5.152809e-03    1.1120669  6.082757e-03  5.989233e-03    1.1120250    1.1130421    1.1111500    1.1129671  5.190913e-02    1.1122095  5.709074e-03    1.1123464  6.646273e-03    1.1125848  6.115732e-03    1.1126967   25.0000000 1
129    0.6089634    0.6056970  5.996354e-03  6.212001e-03  6.221764e-03  6.114037e-03  5.976695e-03    1.1110068    1.0991241    1.1062095    1.1130753  5.381247e-03  5.626756e-03    1.1109069  5.343021e-03    1.1112410  5.999756e-03  5.259123e-03    1.1112928  5.979897e-03  5.986181e-03  6.195074e-03    1.1111052  5.600170e-03    1.1111191    1.1110268  6.303475e-03  5.112077e-03  5.382422e-03    1.1108223  5.150597e-03    1.1109574  7.805584e-03  5.242587e-03   25.0000000 1
130    0.6095424    0.6118277  5.971052e-03  5.310439e-03  6.075673e-03  5.657646e-03  6.106262e-03  5.720480e-03    1.1144420  5.486644e-02    1.1132333  5.922197e-03    1.1128609  5.657470e-03    1.1125001  5.384160e-03    1.1120152  5.042990e-03    1.1129295  5.330651e-03    1.1121109    1.1124050  5.481661e-03    1.1122922    1.1128815  6.437051e-02    1.0743581  5.960769e-03  5.361436e-03    1.1127533  5.298221e-03    1.1123719  6.042056e-03  5.331787e-03   25.0000000 1
131    0.6106601    0.6065362  6.344684e-03  6.363421e-03  6.434845e-03  6.319518e-03  6.534635e-03  6.281990e-03    1.1140741  3.999682e-02    1.1129348  6.366738e-03    1.1112855  6.250955e-03    1.1120634    1.1125203    1.1126335  6.296445e-03    1.1123810  6.181154e-03    1.1125262  5.278969e-03  6.616768e-03    1.1124339    1.1124214  6.893128e-03    1.1128457  5.731869e-03    1.1126400  6.270320e-03  5.986304e-03    1.1126328  6.349124e-03    1.1113814   25.0000000 1
132    0.6108326    0.6056418    1.1120129    1.1123930    1.1124453  6.855615e-03  5.914256e-03    1.1117471  5.740128e-03    1.1121796  7.176072e-03  5.849420e-03    1.1119108  6.823579e-03    1.1126165  8.907578e-03  6.971977e-03    1.1122819  6.871349e-03  5.934250e-03    1.1117629    1.1118468  7.231021e-03  6.815475e-03    1.0880422  5.798547e-03    1.1114595    1.1117056  6.020567e-03  5.967930e-03    1.1122066  6.444416e-03    1.0755273  6.998951e-03   25.0000000 1
133    0.6033547    0.6092436  6.334248e-03    1.1116580    1.1115284    1.1116550  6.221817e-03  5.755426e-03    1.1117668    1.1119105    1.1117846    1.1120236    failed    failed    failed    failed    failed    failed    failed    failed    failed    failed    failed    failed    failed    failed    failed    failed    failed    failed    failed    failed    failed    failed   25.0000000 1
134    0.6089459    0.6103215    1.1129074  6.031236e-03    1.0713859  4.806826e-03  1.372406e-02    1.0715758  6.189556e-03  4.611333e-03    1.0811864  5.137902e-03    1.0702332  6.718387e-03    1.1134289  6.372532e-03    1.1147351  6.146116e-03    1.1124679  6.395831e-03  4.229681e-03    1.1123293  4.011537e-02  5.541042e-03    1.1128223    1.1123630  5.608586e-03    1.1124068    1.1129090  5.426663e-03    1.1126409    1.1122381  5.108795e-03    1.1122509   25.0000000 1
135    0.6096915    0.6131322  6.116368e-03  6.027410e-03    1.1125222  6.144918e-03    1.1125080    1.1129562  3.297388e-02    0.1593612  5.448184e-03    1.1127141    1.1128528  6.382846e-03    1.1123970  6.373687e-03    1.1128967    1.1050991  5.171785e-03    1.0800668    failed    failed    failed    failed    failed    failed    failed    failed    failed    failed    failed    failed    failed    failed   25.0000000 1
136    0.6049255    0.6141403  6.254420e-03  6.135598e-03    1.1113351    1.1103281  5.317247e-03    1.1110559    1.1113575  5.624336e-03    1.1108423    0.1503531  5.874645e-03    1.0760538  6.416309e-03  6.117820e-03    1.1115107    1.1092087    1.1117211  6.344609e-03    1.1038511  3.523446e-02    1.0858994  5.180811e-03  5.376388e-04    1.1110440    1.1114772  6.564811e-03    failed    failed    failed    failed    failed    failed   25.0000000 1
137    0.6096211    0.6070125    1.1124457  5.274914e-03    1.1119459    failed    failed    failed    failed    failed    failed    failed    failed    failed    failed    failed    failed    failed    failed    failed    failed    failed    failed    failed    failed    failed    failed    failed    failed    failed    failed    failed    failed    failed   25.0000000 1
138    0.6099143    0.6072988  6.345915e-03  6.536786e-03  6.506368e-03  5.053648e-03  6.231550e-03  6.246767e-03    1.1120969  5.532322e-03    1.1117808  6.995440e-03    1.1110403  6.353746e-03    1.1118285  1.716574e-02    1.0716459    1.1117715    1.1044426  5.759535e-03    1.1105003    1.1120823  6.432978e-03    1.1117151  6.597092e-03    1.0765264  6.214575e-03  5.625167e-03    1.1117210    1.1124203  5.893545e-03    1.1116264  5.979464e-03    1.1120582   25.0000000 1
139    0.6089038    0.6066541  6.536230e-03    1.1144534  6.242051e-03    1.1122161  5.408614e-02  6.427258e-03  6.489555e-03  5.831841e-03    1.1127956  5.691860e-03    1.1128155  5.397490e-03    1.1128687    1.1123504  6.469417e-03    1.1126814  5.868705e-03    1.0703833    1.0882233    1.1131944  4.738708e-03  5.346862e-03    1.1128708  6.500339e-03    1.1122734    1.1127001  5.892248e-03    1.1126148  6.016715e-03  5.508808e-03    1.1129378    1.1043624   25.0000000 1
140    0.6125589    0.6111490  6.937002e-03  7.210923e-03  6.828018e-03  6.831620e-03    1.1121296  6.706321e-03    1.1116097    1.1127161    1.1121051  6.090241e-03    1.0839945    1.1123499    1.1125876  7.038382e-03    1.0829637  6.098453e-03    1.1124498  6.905740e-03  6.173506e-03    1.1137817  6.237950e-03    1.1120375  5.917868e-03  5.951540e-03  6.989955e-03    1.1120589  5.400568e-02    1.1119013  5.416635e-03  6.258539e-03  6.989674e-03  7.049940e-03   25.0000000 1
141    0.6106891    0.6056991  6.643341e-03    1.1121103  9.778196e-03    1.1111758  5.487436e-03    1.1115583  5.509479e-02    1.1088604    1.1129771  5.487700e-02    1.1126057  6.004247e-03    1.1121886  5.956655e-03  5.955240e-03    1.1116484  6.605195e-03    1.1113734    1.1093616  5.754194e-03    1.1120414  6.573590e-03    1.1116222  5.791118e-03    1.1119210  6.630147e-03    1.0888548  6.403131e-03    1.0760562    1.1118358  6.551571e-03  6.440100e-03   25.0000000 1
142    0.6038677    0.6112057  6.756383e-03  6.505380e-03  6.669386e-03    1.1131120  6.806332e-03    1.1081652  3.065657e-02    1.0967642  3.472687e-02  2.852237e-02    1.0919832    1.1024197    1.1058206    1.1058282    1.1085411    1.1084360    1.1120079    1.1113057    1.1095927    1.1089756    1.1074296    1.1072867    1.1082716    1.1078696    1.1079363    1.1073990    1.1066974    1.1070976    1.1064345    1.1071651    1.1029233    1.1058492   25.0000000 1
143    0.6018237    0.6072156    1.1120939    1.1118811    1.1117253    1.1119160    1.1118181  5.693349e-03    1.0747059  4.493275e-03    1.1080329  6.013642e-03    1.0704450  5.955323e-03  5.649738e-03  6.010723e-03    1.1121870  5.309942e-03  5.179446e-03    1.1118978    1.1121701  4.943234e-03    1.1117730  5.070188e-03    1.1138931  5.347492e-03    1.1117939  2.975709e-02    1.1120381  2.419531e-02    1.0778332  5.157712e-03    1.1118779  4.988051e-03   25.0000000 1
144    0.6052782    0.6090048    1.1130962  6.772215e-03    1.0690967  6.049000e-03    1.0796019    1.1125191  6.933604e-03  6.662485e-03    1.1126860  6.143207e-03    1.0831788  6.920485e-03    1.1124251  7.087639e-03  6.182340e-03    1.1127938  5.739807e-02    1.1129301  5.407131e-03    1.1125221  5.513326e-03    1.0854426  6.898508e-03    1.1124708  7.910025e-02    1.1127441  6.661186e-03  5.892575e-03  6.891609e-03    1.1124273    1.1131579  6.050698e-03   25.0000000 1
145    0.6001848    0.6065010  7.166822e-03    1.1126156    1.1109791  6.301766e-03  6.369564e-03    1.1122308  7.722095e-02  3.464145e-02  7.483280e-03  7.181833e-03  7.527520e-03  7.177796e-03    1.1125593  6.317606e-03  6.710223e-03    1.1117731  7.280683e-03  6.971620e-03  7.197583e-03    1.1123564    1.1146262  6.307247e-03  7.379344e-03    1.0795413  2.178889e-03    1.1121172  6.921949e-03  5.992273e-03    1.1127087  6.153037e-03    1.1120276  9.040208e-02   25.0000000 1
146    0.6146007    0.6040790  6.548085e-03  6.676114e-03  6.399217e-03    1.1131528  1.151332e-02    1.1124761    1.1101177  5.092418e-02  6.328693e-03  6.391259e-03  6.308593e-03    1.1133439  4.147334e-02    1.1130090    1.1110966  6.704434e-03    1.1134098  5.935750e-03    1.1128838    1.1130445  6.777754e-03    1.1130717  5.867669e-03  5.802226e-03    1.1132724    1.1133228  4.966385e-02    1.1124142  6.786694e-03  6.446423e-03    1.1129856  6.429343e-03   25.0000000 1
147    0.6083675    0.6071668  6.557777e-03  6.515375e-03  6.381111e-03  6.481840e-03    1.1119519    1.1138634  1.338241e-02    1.1112365  3.466385e-02    1.1124676    0.1243656  5.592152e-03    1.1118141  6.595321e-03  5.648859e-03  6.708788e-03    1.1121326  6.722075e-03    1.1115524  5.525657e-03    1.1123286  5.624053e-03    1.1111377  6.631440e-03    1.1117673  6.421509e-03    1.1114609  5.451809e-03    1.1120365  5.511642e-03    1.1122290  5.485245e-03   25.0000000 1
148    0.6069410    0.6092159    1.1132337    1.1137487    1.1135464    1.1140153  6.427174e-03    1.1132424    1.1129956  6.613899e-03    1.1131479  5.772268e-03    1.0800060  6.702846e-03    1.1130339    1.1125408  6.072235e-03    1.1136447  6.264537e-03    1.1080331  6.544072e-03    1.1132538  5.714270e-03  5.715231e-03    1.1133895    1.1139110    1.1132636  5.931480e-03    1.1129609    1.1140862  5.789881e-03  5.512576e-03    1.1135590  6.673085e-03   25.0000000 1
149    0.6095728    0.6073274  7.257385e-03  7.007224e-03    1.1113138    1.1092538    0.1574140  7.187914e-03    1.0943265    1.1142780  7.332332e-03  6.227302e-03    1.1141296  3.316062e-02  6.077027e-03    1.1130480  6.719727e-03    1.1142880    1.1140934  6.287977e-03    1.1137833  6.250746e-03    1.1133327  5.595755e-02    1.1135083  3.370871e-02    1.1132825    1.1097908  6.310197e-03    1.0760514  8.281325e-03    1.1136320  6.162789e-03    1.1116933   25.0000000 1
150    0.6139141    0.6070479  5.615112e-03  5.763211e-03    failed    failed    failed    failed    failed    failed    failed    failed    failed    failed    failed    failed    failed    failed    failed    failed    failed    failed    failed    failed    failed    failed    failed    failed    failed    failed    failed    failed    failed    failed   25.0000000 1
151    0.6104167    0.6127142    1.1122224    failed    failed    failed    failed    failed    failed    failed    failed    failed    failed    failed    failed    failed    failed    failed    failed    failed    failed    failed    failed    failed    failed    failed    failed    failed    failed    failed    failed    failed    failed    failed   25.0000000 1
152    0.6071215    0.6056536    1.1124192  5.831962e-03  5.616900e-03  5.800748e-03    failed    failed    failed    failed    failed    failed    failed    failed    failed    failed    failed    failed    failed    failed    failed    failed    failed    failed    failed    failed    failed    failed    failed    failed    failed    failed    failed    failed   25.0000000 1
153    0.6072549    0.6062476    1.1112104    1.1113507    1.1116305    1.1114881    1.1114573    failed    failed    failed    failed    failed    failed    failed    failed    failed    failed    failed    failed    failed    failed    failed    failed    failed    failed    failed    failed    failed    failed    failed    failed    failed    failed    failed   25.0000000 1
154    0.6120726    0.6052920  6.434547e-03  6.405332e-03    1.1136017  6.377091e-03    1.1133815    1.1137284  5.422469e-02    0.1704190  5.922852e-03  5.565997e-03    1.1131253    1.1137530    1.1135892    1.1134624  6.710681e-03  5.599561e-03    1.1132299  5.741560e-03    1.0814682    0.1643966  4.602488e-03    1.0757033  5.783286e-03    1.1132665  5.573772e-03  5.965164e-03    1.0876144  4.629400e-02    1.1104650  4.846264e-02  6.529464e-03  6.487643e-03   25.0000000 1
155    0.6066588    0.6053738    1.1120614  6.592478e-03    1.0731783    1.1120994    1.1122871  6.581030e-03    1.1119886  6.377162e-03    1.1121013  5.612354e-03    1.1117167    1.1123810  6.827184e-03    1.1116943  5.652527e-03    1.1122070    1.1121418  5.612028e-03  5.902772e-03    1.1121264  5.420005e-03  5.831591e-03    1.1120182  5.627619e-03    failed    failed    failed    failed    failed    failed    failed    failed   25.0000000 1
156    0.6039103    0.6033781    1.1125634    1.1126188    1.1123996  6.837105e-03    1.0989429  5.324773e-02    1.1044002    1.1120559    1.1127560  9.558475e-02    1.1111095  5.758847e-03    1.0722185  7.142571e-03  5.977845e-03    1.1118923  5.315349e-02    1.1122972  6.924669e-03    1.1122514    1.1125328  2.325297e-02  5.709664e-03    1.1123842  6.512029e-03    1.1109564  6.678740e-03    1.1125886    1.1125351  5.879697e-03    1.1118979  6.842127e-03   25.0000000 1
157    0.6082046    0.6064145    1.1127808  6.838682e-03  6.788978e-03    1.0910917  2.607808e-02    1.1126901    1.1101981  9.397055e-02    1.0702555    1.1124997  5.953121e-03    1.1057382    0.1520814  7.062495e-03    1.1133972  6.116427e-03    1.1132665  5.472068e-02    1.1139580    1.1097752  5.866104e-03    1.0717947  6.927395e-03    1.1145243  6.813716e-03    1.1124981  5.823524e-03    1.1126577  5.730605e-03    1.1122355  5.556478e-02  5.998437e-03   25.0000000 1
158    0.6088276    0.6126807    1.1124060    1.1122289    1.1123247  5.856919e-03  6.078544e-03    1.1122167  5.379885e-03    1.1120734    failed    failed    failed    failed    failed    failed    failed    failed    failed    failed    failed    failed    failed    failed    failed    failed    failed    failed    failed    failed    failed    failed    failed    failed   25.0000000 1
159    0.6043805    0.6096505    1.1128840    1.1130489    1.1130336    1.1130842    1.1128841  6.174881e-03    1.0833850    1.1133199  6.527593e-03    1.0769978  5.543078e-03    1.1097276  5.874939e-03  6.337760e-03    1.1130416  6.580005e-03    1.1125847  5.405840e-03    1.1123686    1.1132145    1.1130059    1.1128616  6.637005e-03    1.0987934  5.886755e-03    1.1134018    1.1127642    1.1125901  6.470559e-03    1.1128474    1.1127539    1.1130469   25.0000000 1
160    0.6120905    0.6111383  6.176446e-03    1.1117970    1.1120023  6.326123e-03    1.1115703  5.575440e-03    1.1117767  5.801674e-03    1.1123629    1.1121578  6.098384e-03    1.1115864    1.1122021  6.158878e-03  5.511574e-03  5.925994e-03    1.1115079  6.266983e-03  5.862473e-03    1.1119353  5.194239e-03  1.200998e-02    1.1114728  5.351423e-03    1.0886808    1.1119062    1.1119231    1.1116889  6.265513e-03    1.1120427  2.789917e-02    1.1112089   25.0000000 1
161    0.6106157    0.6120828    1.1135721    1.1132927  6.763953e-03    1.1065902  2.769181e-02  7.680524e-03    1.0746950    1.1131622    1.1131123    failed    failed    failed    failed    failed    failed    failed    failed    failed    failed    failed    failed    failed    failed    failed    failed    failed    failed    failed    failed    failed    failed    failed   25.0000000 1
162    0.6073444    0.6111254    1.1124474    1.1120431    1.1121582    1.1118665    1.1121056    1.1117317    1.1121467  5.823808e-03  6.098716e-03  6.092014e-03  5.938933e-03    1.1117945  6.064301e-03    1.1116372    1.1119736    1.1117782    1.1119835    1.1121380    1.1121489  6.771905e-03  3.871070e-03    1.1120328  6.118761e-03  6.134233e-03  5.970205e-03  6.655627e-03    1.1119089  1.299962e-02  5.585611e-03    1.1121357  5.807251e-03    1.1116036   25.0000000 1
163    0.6062493    0.6030937    1.1118514    1.1116921    1.1124117  7.507152e-03    1.0877557  5.527636e-02    1.1120123    1.1121929    0.1405408    1.1127268  7.676621e-03    1.1117335    1.1126750  7.552218e-03    1.0784054    1.1123034  7.601846e-03    1.0787635  6.502493e-03    1.0734656    1.1121136  8.684245e-03    1.1118789  7.754099e-03    1.1118836  7.813821e-03    1.0761451  7.541271e-03    1.1120532  4.715745e-02    1.1123065    0.1616399   25.0000000 1
164    0.6028983    0.6153468  6.197299e-03  5.806321e-03    1.1120631  1.930044e-02    1.1089249    1.1123010    1.1122100  6.212275e-03    failed    failed    failed    failed    failed    failed    failed    failed    failed    failed    failed    failed    failed    failed    failed    failed    failed    failed    failed    failed    failed    failed    failed    failed   25.0000000 1
165    0.6038392    0.6119297    1.1123508    1.1120420    1.1126112  6.156552e-03  5.889133e-03  6.201006e-03  6.107286e-03  6.301316e-03    1.1123900    1.1123656  6.252759e-03    1.1117991  6.201253e-03  6.086135e-03    1.1123263    1.1120388  6.275102e-03    failed    failed    failed    failed    failed    failed    failed    failed    failed    failed    failed    failed    failed    failed    failed   25.0000000 1
166    0.6057488    0.6066565  6.158399e-03  6.045256e-03    1.1126991    1.1121120  1.915492e-02    1.0753281  6.155553e-03  6.140449e-03    1.1125670    1.1123722  5.640159e-03    1.0846220  5.311759e-03    1.1119850    1.1124021  6.137198e-03    1.1126739  6.137701e-03    1.1047499    1.1130723  7.237787e-03    1.1126355  6.192149e-03    1.1102930  5.562294e-02    1.1129027  7.998807e-03    1.1135516  5.651250e-03  5.434222e-03    1.1124997    1.1124018   25.0000000 1
167    0.6067748    0.6186440  6.396171e-03    1.1136586    1.1136382  7.183787e-03    1.1135242    1.1136245    1.1109440    0.1635343    1.1135045  7.234836e-03    1.1138296    1.1084937  6.272230e-03    1.1136159  9.330182e-03    1.0923158  6.981326e-03    1.1134720  6.326943e-03    1.1134573  6.268784e-03    1.1133269  6.312146e-03    1.1134825  6.380444e-03    1.1132077  6.224153e-03    1.1131988  6.390252e-03    1.1134839  6.338193e-03    1.1134008   25.0000000 1
168    0.6084986    0.6087921    1.1121873  6.194898e-03  6.459811e-03    1.0766930    1.1120000  6.357938e-03    1.1107667  6.317548e-03    1.1119610  6.306733e-03    1.1119438    1.1119802  6.787060e-03    1.1117116  5.785531e-03    1.1117201  6.687653e-03    1.1117202    1.1123073  6.459511e-03    1.1119005  6.754920e-03    1.0810754  5.837646e-03  6.521357e-03  6.514952e-03  6.705735e-03  6.446738e-03    1.1119613  6.525583e-03    1.1111910  6.283199e-03   25.0000000 1
169    0.6100876    0.6097596    1.1126880  6.007028e-03  6.548463e-03  5.543790e-03    1.1123714  6.420148e-03    1.1120721  5.887666e-03    1.0834455    1.1023534  5.500731e-03    1.0865243  8.962097e-03    1.0803370  4.952066e-03    1.0765093    1.1118966    1.1129985  6.450459e-03    1.1126194  6.169333e-03  5.614718e-03  6.033208e-03  6.405058e-03    1.1126127    1.1124123  6.484873e-03    1.1123803  5.372765e-03    1.1056511  5.598090e-03  5.644240e-03   25.0000000 1
170    0.6103049    0.6036368  6.767079e-03  6.544257e-03  6.757580e-03  6.743859e-03  6.598885e-03  6.727297e-03  6.888014e-03    1.1148364    1.1111033  6.002084e-03    1.1123106  5.275531e-02    1.1125854  5.807082e-03    1.0818729  3.028239e-03    1.1117582  6.537459e-03    1.1127441  5.719002e-03    1.1125096  5.310989e-02    1.1126458  6.704625e-03    1.1123433  5.695120e-03  1.062526e-02    1.1118280  5.705098e-03    1.0914127  6.710061e-03  6.906661e-03   25.0000000 1
171    0.6117439    0.6137405  6.390289e-03    1.1131525    1.1134177    1.1129755  6.383178e-03  6.283367e-03  6.199503e-03    1.1136914    1.1134270  6.251493e-03    1.1133271  6.288551e-03    1.1131855    1.1143090  4.982923e-03    1.0747687  6.292764e-03    failed    failed    failed    failed    failed    failed    failed    failed    failed    failed    failed    failed    failed    failed    failed   25.0000000 1
172    0.6037521    0.6087836    1.1121059    1.1121357    1.1117102  5.776580e-03    1.1117442  5.727279e-03  5.730930e-03    1.1108831    1.1123285  5.066420e-03    1.1123718  5.404569e-03    1.1120159  5.615025e-03    1.1115234    1.1121978  5.047127e-03    1.1115495  5.406991e-03    1.1116338  5.393855e-03    1.1118342    1.1120503  5.441353e-03    1.1116203  5.424340e-03    1.1115369    1.1119137    1.1117113    1.1120607  5.551448e-03  5.389741e-03   25.0000000 1
173    0.6060261    0.6074083    1.1121265  6.721088e-03    1.1119153  4.700242e-02    1.1096587  4.725216e-02  6.057406e-03    1.1116850  6.542085e-03    1.1118245  6.047285e-03    1.1117943    1.1126340  6.854715e-03    1.1118372    1.1118765  5.912264e-03    1.1106362    1.1128295    1.1122063  8.727281e-03    1.1117485    1.1135964  5.977322e-03    1.1119569  6.527611e-03    1.1118774  5.819065e-03    1.1096156    1.1125915  6.458760e-03    1.1117715   25.0000000 1
174    0.6060211    0.6110015    1.1128333  6.344782e-03    1.1122031  7.331515e-03    1.1126772    1.1126106    1.1127538    1.1130758  7.603772e-03    1.1103887  5.365980e-02  7.626124e-03    1.1144239  2.471253e-02    1.1105857    1.1102036    1.1131184  6.074331e-03    1.1116530  7.571344e-03  6.452220e-03    1.1121194    1.1129323    1.1129765  6.484899e-03    1.1129318  7.349036e-03  7.394872e-03    1.1124171  5.473675e-02  7.828706e-03  7.610500e-03   25.0000000 1
175    0.6081830    0.6070686  6.718397e-03  6.575995e-03  6.834350e-03    1.1140972  5.571029e-02    1.1002156  5.785915e-03    1.1122004    1.1123873  5.863837e-03    1.1101409  6.788018e-03  5.900019e-03  5.836095e-03  6.046693e-03  6.103624e-03  6.705621e-03    1.1122186    1.1122525  5.869732e-03  5.864749e-03    1.1121706    1.1123607    1.1125442  6.669484e-03    1.0778021  5.525082e-03  5.880903e-03    1.1122965  6.790686e-02    1.1122627    1.1122551   25.0000000 1
176    0.6113503    0.6112437  6.821968e-03    1.1131290    1.1131485  5.680798e-03    1.1131703  5.937888e-03  5.926472e-03    1.1128811  5.572940e-03    failed    failed    failed    failed    failed    failed    failed    failed    failed    failed    failed    failed    failed    failed    failed    failed    failed    failed    failed    failed    failed    failed    failed   25.0000000 1
177    0.6069291    0.6055504    1.1123660    failed    failed    failed    failed    failed    failed    failed    failed    failed    failed    failed    failed    failed    failed    failed    failed    failed    failed    failed    failed    failed    failed    failed    failed    failed    failed    failed    failed    failed    failed    failed   25.0000000 1
178    0.6093463    0.6115505    1.1122871  5.312500e-03    failed    failed    failed    failed    failed    failed    failed    failed    failed    failed    failed    failed    failed    failed    failed    failed    failed    failed    failed    failed    failed    failed    failed    failed    failed    failed    failed    failed    failed    failed   25.0000000 1
[...]
660    0.6062650    0.6073390    1.1123797    failed    failed    failed    failed    failed    failed    failed    failed    failed    failed    failed    failed    failed    failed    failed    failed    failed    failed    failed    failed    failed    failed    failed    failed    failed    failed    failed    failed    failed    failed    failed   25.0000000 1
661    0.6081253    0.6074286    1.1130339    1.1129491  6.655158e-03    1.0705299  6.108865e-03    1.1129505  6.621399e-03  2.337732e-04    1.0879137  6.357707e-03  2.291524e-03    1.0820319  1.393915e-02    1.0747033    1.1130204    1.1108660  6.223428e-03    1.0862032  5.562188e-03    1.1131195    1.1126553  6.596432e-03  6.849031e-03    1.0720795    1.1097759  6.643045e-03    1.1128166    1.1124897  5.885070e-03  8.749646e-03    1.1126211  5.675349e-03   25.0000000 1
662    0.6078232    0.6089510    1.1120210    1.1121749    1.1121605    1.1120102  6.262123e-03  5.187007e-03    1.0766170    1.1120447    1.1121358  6.591814e-03    1.0746817  6.510519e-03  6.395680e-03  6.122628e-03    1.1119699  5.617350e-03  5.526727e-03    1.1115666  5.608025e-03  5.957066e-03    1.1091376  6.297932e-03    1.1111558    1.1117057  5.623546e-03    1.1109653  5.189626e-03  1.437319e-02    1.0867105  6.301717e-03  5.722795e-03    1.1119205   25.0000000 1
663    0.6108233    0.6066652    1.1120637    1.1121551    1.1120190    1.1121019  6.142225e-03  9.416481e-03  4.961990e-03    1.0896776  5.529838e-03  5.422186e-03    1.1114409    1.1117781  6.127904e-03    1.1132224  6.219696e-03    1.1119247  5.154123e-03    1.1132970  6.381082e-03    1.1114496  6.032394e-03    1.1114881  6.174983e-03    1.1116329  6.173084e-03    1.1116834  6.012263e-03    1.1116881  6.234324e-03    1.0737043    1.1116880  6.128133e-03   25.0000000 1
664    0.6111723    0.6103555  6.300945e-03  6.218313e-03  6.356027e-03    1.1123965  5.957157e-03    1.1124609  6.981764e-03    1.0754462  3.907547e-03    1.1128371  5.862705e-03  6.379455e-03  6.061996e-03  6.169312e-03  6.300801e-03  7.185592e-03    1.1143114  4.699098e-02    1.1132060  6.982408e-03    1.1118933  6.745259e-03    1.1124972  7.042437e-03    1.1124911    1.1133451  6.361024e-03  6.351221e-03    1.1107984    1.1131007  5.010959e-02    1.1131669   25.0000000 1
665    0.6047416    0.6056275    1.1133747  6.350973e-03    1.1127680    1.1131411    1.1133841    1.1134517  7.160581e-03    1.1126513  4.631131e-02    1.1112580  7.342307e-03    1.1131615    1.1125680  7.342518e-03  4.562463e-03    1.1126836    1.1082029  6.237124e-03  4.918807e-03    1.1123219    1.1051120  6.392018e-03  5.134174e-03    1.1122445    1.1140653  6.346998e-03    1.1134004  5.889308e-03    1.1131613  7.175691e-03  1.054937e-02    1.1126955   25.0000000 1
666    0.6119446    0.6112247    1.1129174  6.819613e-03    1.1124407  6.944769e-03  6.872868e-03  6.766832e-03  6.768738e-03    1.1125728  6.002628e-03    1.1125136  5.835512e-03    1.1124236    1.1129878    1.1115954    1.1054481  5.197984e-02    1.1125162    1.1130084    1.1128845  7.082727e-03    1.1126142  5.857372e-03    1.0871091    1.1129764  7.042650e-03    1.1123490  6.210661e-03  6.709252e-03    1.1129923  5.836225e-03    1.1127667    1.1128847   25.0000000 1
667    0.6087402    0.6086743  6.826958e-03  6.794762e-03  6.732524e-03    1.1121299  6.728051e-03  6.750616e-03    1.1108690  4.613321e-02    1.1128424  6.706905e-03    1.1121178  6.517481e-03  6.725492e-03  6.822947e-03  6.703213e-03    1.1125257    1.1124548  3.006455e-02    1.1124918  6.686996e-03    1.1120173  6.506242e-03    1.1121706    1.1125283    1.1128123    1.1125292  6.949876e-03  5.829250e-03    1.1120313  6.872272e-03    1.1119474  7.519814e-03   25.0000000 1
668    0.6146906    0.6127467  6.420947e-03    failed    failed    failed    failed    failed    failed    failed    failed    failed    failed    failed    failed    failed    failed    failed    failed    failed    failed    failed    failed    failed    failed    failed    failed    failed    failed    failed    failed    failed    failed    failed   25.0000000 1
669    0.6079575    0.6105482    1.1117229    1.1121976  6.848784e-03    1.1120438  5.879979e-03    1.1120136  6.716540e-03  6.925284e-03    1.1123759  5.934528e-03    1.1119131    1.1122202  6.901550e-03  5.253743e-03    1.1119907  5.720959e-03    1.1119872  6.886620e-03    1.1120181  4.946923e-02  6.961818e-03  7.056606e-03    1.1121952  8.685311e-03  6.036079e-03    1.1123068    1.1119423    1.1126532  5.643963e-03  5.816356e-03    1.1124326  6.958579e-03   25.0000000 1
670    0.6036024    0.6132021    1.1119850  5.331004e-03  5.636788e-03  6.280192e-03  6.187276e-03  6.153604e-03  5.917096e-03  6.252770e-03    1.1121675    1.1120639  5.551076e-03  5.534570e-03    failed    failed    failed    failed    failed    failed    failed    failed    failed    failed    failed    failed    failed    failed    failed    failed    failed    failed    failed    failed   25.0000000 1
671    0.6077922    0.6073705  6.823590e-03  6.889211e-03    1.1120682    1.1127996    1.1124133    1.1126702  8.359857e-02  6.371354e-03  6.129035e-03  6.166548e-03  7.128782e-03    1.0816183  5.977607e-03    1.1121890  9.102530e-02  6.858166e-03    1.0746986  1.802608e-02  6.732795e-03    1.0713010    1.1121314  6.005330e-03    1.0748736  1.801264e-02    1.1115573  7.540916e-02  6.462330e-03  6.807149e-03  7.128174e-03    1.1123566  6.751743e-03    1.1122187   25.0000000 1
672    0.6057767    0.6012403  6.871001e-03  6.938731e-03  6.078051e-03    1.1125053  8.334085e-02    1.1109165  6.562290e-03    1.1013874    0.1629024    1.1101422  5.847332e-03    1.1124346  6.094330e-03    1.1128496  5.805970e-03    1.1098448  6.580038e-03    1.1125894  5.593586e-03    1.1126642    1.1122773    1.1128072  5.956980e-03    1.1123667    1.1126107    failed    failed    failed    failed    failed    failed    failed   25.0000000 1
673    0.6099585    0.6021947    1.1125602    1.1124628    1.1127108    1.1126127  6.851081e-03    1.1120521  7.138659e-03    1.1123904  5.912045e-03  6.017428e-03    1.0926090    1.1104059    1.0968866    1.1124530    1.1129222  6.404441e-03  6.187905e-03  7.402773e-03  6.970778e-03    1.1097988  7.406545e-03  6.510391e-03    1.1123132  7.151472e-03    1.1115158  5.899266e-03    1.1108975  7.368581e-03  1.719573e-02    1.1119376  6.757395e-03  6.305830e-03   25.0000000 1
674    0.6115140    0.6090918    1.1124763    1.1125011    1.1124827    1.1124972    1.1127808  5.515612e-03    failed    failed    failed    failed    failed    failed    failed    failed    failed    failed    failed    failed    failed    failed    failed    failed    failed    failed    failed    failed    failed    failed    failed    failed    failed    failed   25.0000000 1
675    0.6035881    0.6096238    1.1121724    1.1120508  5.824108e-03  6.856607e-03    1.1120605  7.662057e-03    1.1117207    1.1116001    1.1098789    1.1111250  6.016272e-03    1.1120623  7.043143e-03  7.205419e-03    1.1121777    1.1033101  6.105114e-03    1.1123226  6.993723e-03    1.1114659    1.1121669  8.582946e-03    1.1116383  6.646895e-03  5.843144e-03    1.1119983  5.898737e-03    1.1119891  6.986098e-03  1.444600e-02  6.689715e-03  5.842707e-03   25.0000000 1
676    0.6082354    0.6117257    1.1124854    failed    failed    failed    failed    failed    failed    failed    failed    failed    failed    failed    failed    failed    failed    failed    failed    failed    failed    failed    failed    failed    failed    failed    failed    failed    failed    failed    failed    failed    failed    failed   25.0000000 1
677    0.6069930    0.6072415  5.857266e-03  6.398120e-03    1.1129141  4.712488e-02    1.1125499  5.522519e-02  6.682753e-03  6.741959e-03  5.898078e-03    1.1128343  6.737051e-03  5.915594e-03  3.500010e-03    1.1126391  6.875755e-03    1.1130032    1.1129200  6.503683e-03    1.1127596  5.979282e-03    1.1122593    1.1130997  5.607982e-03    1.1127100  6.664716e-03    1.1031991    1.1133962    0.1745534  6.764829e-03    1.1127979    1.1127285    1.1132777   25.0000000 1
678    0.6063900    0.6131271  6.040568e-03    1.1119233    1.1121880    1.1120481  5.921057e-03  6.092010e-03  5.927276e-03    1.1140132  5.355071e-03  4.358227e-03  1.308079e-02    1.1119961  4.423490e-02  6.062171e-03  5.926248e-03    1.0789222    1.1118268  5.411613e-03  5.273351e-03    1.0837690  6.107214e-03  5.355161e-03    1.1115378    1.1119617    1.1121531    1.1121125  5.993943e-03    1.1114857    1.1119657    1.1119253  6.220861e-03    1.1120687   25.0000000 1
679    0.6040256    0.6005605  5.631578e-03  6.613662e-03  6.620953e-03  7.738539e-03    1.1124676    1.1125959    1.1128360    1.1143217    1.1127720  5.784484e-03    1.1123287  5.385994e-03    1.1126571  5.309835e-03  5.865972e-03    1.1017943    1.1126459    1.1129926  6.283835e-03  6.160672e-03    1.1107464  5.545725e-03    1.1125889  6.535328e-03    1.1126250  6.425400e-03    1.1125361    1.1125948    1.1127570  9.875438e-02    1.0727101  6.604842e-03   25.0000000 1
680    0.6145190    0.6044803    1.1127403    failed    failed    failed    failed    failed    failed    failed    failed    failed    failed    failed    failed    failed    failed    failed    failed    failed    failed    failed    failed    failed    failed    failed    failed    failed    failed    failed    failed    failed    failed    failed   25.0000000 1
681    0.6104548    0.6089583    1.1130285  6.575107e-03    1.0964863  2.537969e-02    1.1128426  5.856470e-02  4.374238e-03  1.635836e-02  5.933070e-03    1.1131564    1.1130843    1.1134240    1.1133513  6.674075e-03    1.0750774  6.753877e-03    1.1129115  6.715041e-03    1.1133417  6.142276e-03    1.1138580  6.833449e-03    1.1131566    1.1131513  3.339177e-02  5.941829e-03    1.1124008    1.1134024  6.482924e-03    1.0862667  6.315222e-03    1.0769689   25.0000000 1
682    0.6075511    0.6067821    1.1115445    1.1116807    1.1115180    1.1115862  5.877966e-03    1.0782242    1.1114798    1.1116135    1.1116793    1.1113731  5.909275e-03  5.458271e-03    1.1115836  5.528892e-03  5.795758e-03  5.708136e-03    1.1113450    1.1114038  5.820082e-03    1.1110008    1.1114158  5.768741e-03  5.069774e-03  5.240550e-03    1.1115705    1.1113221  5.731977e-03  6.036984e-03    1.1109453  5.098312e-03    1.1113505  6.140625e-02   25.0000000 1
683    0.6120804    0.6152159    1.1130031    1.1129408  5.658433e-03  5.769341e-03  6.592180e-03  6.935498e-03  6.436327e-03    failed    failed    failed    failed    failed    failed    failed    failed    failed    failed    failed    failed    failed    failed    failed    failed    failed    failed    failed    failed    failed    failed    failed    failed    failed   25.0000000 1
684    0.6051338    0.6068009    1.1126513    1.1127329  6.089603e-03    1.0676386    1.1119847  6.094614e-03  6.257060e-03    1.1122258  6.288990e-03    1.1125217  6.254499e-03    1.0883240  4.944343e-02    1.1125992  4.423042e-02  7.788771e-03    1.1121470  6.347920e-03    1.1123796  5.571944e-03  5.660367e-03    1.1038546  6.274121e-03    1.1098528  6.412529e-03    1.1124677  5.388611e-03    1.0774881  5.984400e-03    1.1124983  5.420875e-03    1.1126669   25.0000000 1
685    0.6095642    0.6137885    1.1121257    failed    failed    failed    failed    failed    failed    failed    failed    failed    failed    failed    failed    failed    failed    failed    failed    failed    failed    failed    failed    failed    failed    failed    failed    failed    failed    failed    failed    failed    failed    failed   25.0000000 1
686    0.6078613    0.6150331  6.622416e-03    1.1124136    1.1121908    1.1039522    1.1063107    1.1061327    1.1048004    1.1063674    1.1070696    1.1080836    1.1076132    1.1086704    1.1101517    1.1064898    1.1070407    1.1081806    1.1071774    1.1069775    1.1039161    1.1032479    1.1047947    1.1066561    1.1082637    1.1064871    1.1078813    1.1002688    1.0926344    1.0994305    1.1032700    1.1010989    1.0964989    1.0941301   25.0000000 1
687    0.6145007    0.6038315  6.250708e-03    1.1120946    1.1120523    1.1122843    1.1126866    1.1126538  5.776682e-03    1.1126310  5.986148e-03    1.1123893  6.433062e-03  6.397570e-03  5.950636e-03    1.1121766  5.508500e-03    1.0853140    1.1122246  5.591235e-03    1.1123142    1.1122261  6.278145e-03    1.1125133  6.294146e-03    1.0799334    1.0707325  5.015160e-03    1.1123255  6.250699e-03  6.337474e-03    1.1126055  5.955471e-03    1.1120680   25.0000000 1
688    0.6099289    0.6107919    1.1131572    1.1136933    1.1137149    1.1136908    1.1135151  6.890693e-03    1.1129415    1.1124706  5.887708e-03  6.522985e-03    1.1135989    1.1138127    1.1138947  6.700906e-03    1.1132809  7.192597e-03  6.960948e-03  6.794510e-03  7.191842e-03  6.556626e-03    1.1130940    1.1133253    1.1131875  6.931348e-03  6.889431e-03    1.1131216  5.420300e-03    1.0688125  6.433106e-03  6.341963e-03    1.1128928  6.135016e-03   25.0000000 1
689    0.6055983    0.6141373    1.1122217  5.178838e-03    1.1115217    1.1118437    1.1123120    1.1121449  6.106147e-03    1.0775055    1.1122376  6.258444e-03  5.567787e-03    1.1117697  6.202750e-03    1.1116379  6.145853e-03  5.564673e-03    1.0793879    1.1120097    1.1046385  5.775855e-03    failed    failed    failed    failed    failed    failed    failed    failed    failed    failed    failed    failed   25.0000000 1
690    0.6086767    0.6146718    1.1130279  7.158611e-03  5.924662e-03    1.1125538  6.962807e-03  6.784500e-03  7.004772e-03    1.1131359  6.284914e-03    1.1118657  5.592519e-03  6.370870e-03    1.1125478  6.144667e-03    1.1125762  7.403504e-03  6.096234e-03    1.1129379    1.1126253  6.059261e-03    1.1127818  7.240338e-03  7.294380e-03  7.124187e-03    1.0719604  1.743416e-02  5.958762e-03  6.428673e-03    1.1129275    1.1130638    1.1128996    1.1131553   25.0000000 1
691    0.6129186    0.6103362    1.1124384  6.480962e-03  6.727816e-03    1.0758267    1.1120782    1.1123223  6.420241e-03    1.1121387  6.408294e-03    1.1123062  5.768874e-03    1.1120213    1.1120655  6.662411e-03  8.944851e-03    1.1120943  4.514756e-02    1.1119773  6.657861e-03    1.1119510  5.978602e-03    1.1118439    1.1117880  6.502740e-03    1.1121765    1.1124848  5.899941e-03    1.1124710  9.310875e-02  1.480900e-02    1.0722960    1.1124140   25.0000000 1
692    0.6080270    0.6109739    1.1129664    1.1129860  7.102363e-03    1.0773291    1.1125686    1.1128623    1.1129588  6.044304e-03    1.0866594    1.1126631  6.930280e-03    1.1124719  7.234443e-03  7.001718e-03    1.1124833  6.952500e-03    1.1127176  7.224927e-03    1.1120733  5.463843e-02    1.1124526  6.378332e-03    1.1127090  7.013447e-03    1.1122864    1.1127735    1.1127169  6.595482e-03  6.178969e-03    1.1123846  7.373680e-03    1.1123720   25.0000000 1
693    0.6052199    0.6138374  7.025420e-03  7.083684e-03  6.865902e-03    1.1122799  8.317611e-02    1.0903551    1.1125347  6.430828e-03  6.732670e-03    1.1122793  6.781345e-03  6.960625e-03    1.1099632    1.1128382    0.1451713  6.896010e-03  6.184355e-03    1.1125224    1.1121176  6.784041e-03    1.1121585  7.154783e-03    1.1123802  6.003779e-03    1.1114044    1.1126048    1.1126741  6.864055e-03    1.1121238  6.759736e-03    1.1121436  4.045846e-02   25.0000000 1
694    0.6095454    0.6088678  6.831759e-03    1.1121124  5.560645e-03    1.1122396  5.822668e-03    1.1121368    1.1122279    1.1126087    1.1123247    1.1121730  6.755192e-03  7.141180e-03  6.536114e-03    1.1122264    1.1128592  6.965181e-03  6.972913e-03  8.117234e-03    1.0718279  5.916423e-03    1.1121263    1.1125775  6.946825e-03  6.501954e-03  3.709945e-03    1.0722746    1.0795943  5.916800e-03    1.1121194    1.1125115  6.873642e-03  6.423883e-03   25.0000000 1
695    0.6045474    0.6047059    1.1139632  7.200214e-03    1.0724016  6.127074e-03    1.0825035  6.234017e-03  3.217674e-03    1.0685655    1.1136553    1.1143477  1.104919e-02  7.529812e-03  6.170547e-03    1.1137561  5.866231e-02    1.1116770    1.1140746    1.1132976  6.470588e-03  6.080190e-03  7.183804e-03    1.1133431  6.302663e-03    1.1137075  5.433943e-03    1.1130924    1.1136618  6.989568e-03    1.1136840    1.1136920  7.293443e-03    1.0803975   25.0000000 1
696    0.6095595    0.6074465  6.309247e-03    failed    failed    failed    failed    failed    failed    failed    failed    failed    failed    failed    failed    failed    failed    failed    failed    failed    failed    failed    failed    failed    failed    failed    failed    failed    failed    failed    failed    failed    failed    failed   25.0000000 1
697    0.6138167    0.6069989  6.507723e-03    failed    failed    failed    failed    failed    failed    failed    failed    failed    failed    failed    failed    failed    failed    failed    failed    failed    failed    failed    failed    failed    failed    failed    failed    failed    failed    failed    failed    failed    failed    failed   25.0000000 1
698    0.6061224    0.6100653  6.052181e-03    1.1095387    1.1119594  6.205905e-03    1.1116470  5.407516e-03    1.1116121  5.501012e-03    1.1118435  5.331873e-03    1.1118735  5.384138e-03    1.1119271  5.514532e-03    1.1115059  5.403099e-03    1.1118595  5.531972e-03    1.1120382  5.462663e-03    1.1119759  4.990986e-03    1.1118209  5.550565e-03    1.1119849  5.466800e-03    1.1118391  5.452875e-03    1.1118645  5.395812e-03    1.1119381  4.898768e-03   25.0000000 1
699    0.6122082    0.6051626  5.563848e-03  5.706514e-03  5.788818e-03    1.1119191  7.134449e-02    1.0738781  5.582746e-03    1.1118767    1.1122372  5.065171e-03    1.1118741    1.1118199    1.1124497    1.1121881  5.615525e-03    1.1120750  4.872363e-03    1.1117583  5.930364e-03    1.1119529  5.840317e-03  5.904521e-03    1.1119187  5.085575e-03    1.1131245  5.737490e-02    1.1118030  4.977831e-03  5.826839e-03  5.751372e-03    1.1117569  5.787243e-03   25.0000000 1
700    0.6150624    0.6118164  7.169640e-03  6.996372e-03  7.280429e-03  5.646321e-03    1.1134540    1.1137070    1.1153836  4.098388e-02    1.1139960  7.088521e-03    1.1135128  6.915274e-03    1.1135857  6.517433e-03    1.0681248  6.350667e-03    1.1138772    1.1141188  7.191067e-03  6.505887e-03  6.710236e-03  7.549543e-03    1.1135787    1.1136950    1.1141021  7.520053e-03  6.269171e-03    1.1135203  6.218391e-03    1.1134410  7.424311e-03    1.1132175   25.0000000 1
701    0.6075126    0.6072148    1.1125938    1.1129999    1.1130831    1.1131384  5.991615e-03  5.982559e-03    1.1126693    1.1137279  9.473870e-02  6.138365e-03    1.1130114  6.241473e-03  7.400668e-03  7.198549e-03    1.1128695    1.1129308    1.1130238  6.214645e-03    1.1129151    1.1122086    1.1126168  6.948241e-03    1.1123744  7.579208e-03    1.1124277  6.093645e-03  7.455526e-03  7.324304e-03  7.431305e-03    1.1124682  3.761160e-02  6.073528e-03   25.0000000 1
702    0.6094860    0.6059388  6.592305e-03  5.540121e-03  5.504584e-03  5.604246e-03  5.851903e-03  5.727736e-03    1.1122580    failed    failed    failed    failed    failed    failed    failed    failed    failed    failed    failed    failed    failed    failed    failed    failed    failed    failed    failed    failed    failed    failed    failed    failed    failed   25.0000000 1
703    0.6082189    0.6005930  6.829704e-03    1.1129896    1.1132371    1.1135971    1.1131241    1.1135960  6.861369e-03    1.1029335  6.819131e-03    1.1132178  6.959402e-03    1.1127451    1.1133863    1.1135107  6.446366e-03    1.1127174  5.759406e-03    1.0683278    1.1132229  5.960177e-03    1.1131874  6.014904e-03    1.1108978  5.712988e-02    1.1144634    1.1131603  7.002267e-03  5.854515e-03  7.171052e-03    1.1134689  6.935491e-03  6.846278e-03   25.0000000 1
