$DATA1 SOURCE='PrimeSim HSPICE' VERSION='S-2021.09 win64' PARAM_COUNT=1
$OPTION MEASFORM=1
$index=1 is a nominal sample in Monte Carlo.
.TITLE '* ============================================================'
index debug_vth1 debug_vth2 b1 b2 b3 b4 b5 b6 b7 b8 b9 b10 b11 b12 b13 b14 b15 b16 b17 b18 b19 b20 b21 b22 b23 b24 b25 b26 b27 b28 b29 b30 b31 b32 temper alter#
1    0.    0.    1.0019532  1.886562e-03  2.291232e-03  2.317140e-03  2.231998e-03  2.060295e-03  2.389874e-03  2.498471e-03  2.464324e-03  2.086950e-03  2.149046e-03  1.488244e-03  2.385710e-03  2.325121e-03  2.481940e-03  1.985075e-03  2.266199e-03  2.068313e-03  2.339351e-03  2.306033e-03  2.480051e-03  1.423414e-03  2.417431e-03  2.341188e-03  2.478238e-03  2.222781e-03  2.435016e-03  2.538423e-03  2.159006e-03  2.096135e-03  2.349533e-03  2.130564e-03   25.0000000 1
2  1.044741e-02 -7.223160e-03    1.0020990  2.269703e-03  2.230565e-03  1.903896e-03  1.785061e-03  1.718237e-03  1.707331e-03  1.682767e-03  1.836652e-03  1.701407e-03  1.685359e-03  1.735445e-03  1.710591e-03  1.713744e-03  1.704288e-03  1.668987e-03  1.677084e-03  1.636098e-03  1.711641e-03  1.825215e-03  1.831797e-03  1.302796e-03  1.219909e-03  1.811788e-03  1.811480e-03  1.792809e-03  1.630173e-03  1.485456e-03    1.0010211    1.0004702    1.0010877    1.0011847   25.0000000 1
3 -6.133212e-03 -2.174210e-02    1.0019165  2.212136e-03  2.163112e-03  2.327944e-03  1.826192e-03  1.786583e-03  1.775133e-03  1.745015e-03  1.861353e-03  1.766107e-03  1.856552e-03  1.949686e-03  1.731780e-03  1.821226e-03  1.821996e-03  1.762538e-03  1.735829e-03  1.726677e-03  1.769989e-03  1.828709e-03  1.668499e-03  1.696952e-03  1.820598e-03  2.034182e-03  1.613936e-03  1.236924e-03  1.322534e-03  1.843577e-03  1.888902e-03  1.829341e-03  1.641756e-03  1.680523e-03   25.0000000 1
4  6.712141e-03 -1.602526e-02    1.0016818  1.849832e-03  1.622299e-03  1.452007e-03  1.323917e-03  1.408796e-03  1.414433e-03  1.391630e-03  1.426632e-03    1.0011354    1.0013077    1.0015772    1.0017215    1.0014680    1.0010502    1.0009683    1.0010520    1.0011628    1.0011376    1.0011410    1.0011477    1.0011504    1.0011225    1.0011150    1.0011378    1.0010811    1.0010889    1.0010552    1.0010965    1.0011186    1.0011238    1.0010829   25.0000000 1
5 -1.303766e-03  7.225655e-03    1.0014825  1.366840e-03  1.377029e-03    1.0016345    1.0009224    1.0010843    1.0010428    1.0010713    1.0010940    1.0010896    1.0010737    1.0010425    1.0011154    1.0011419    1.0005340    1.0010288    1.0012519    1.0013436  1.730134e-03  1.087582e-03  1.697211e-03  1.683778e-03  1.662801e-03  1.649466e-03  1.633268e-03  1.677777e-03  1.617578e-03  1.656030e-03  1.613476e-03  1.621249e-03  1.697266e-03  1.900842e-03   25.0000000 1
6 -1.623837e-02  1.319068e-02    1.0024760  2.088428e-03  2.177984e-03  2.113837e-03  2.353131e-03  2.137011e-03  2.371022e-03  2.224478e-03  2.208876e-03  1.941396e-03  1.885751e-03  1.845376e-03  1.785695e-03  1.695161e-03  1.730375e-03  1.722540e-03  1.753439e-03  1.664528e-03  1.655008e-03  1.697081e-03  1.652919e-03  1.745547e-03  1.696757e-03  1.690159e-03  1.741016e-03  1.783875e-03  1.708817e-03  1.681236e-03  1.673394e-03  1.806172e-03  1.761489e-03  1.736811e-03   25.0000000 1
7  1.038073e-02  1.481244e-02    1.0018825  2.122660e-03  2.229551e-03  2.327704e-03  2.140987e-03  2.071042e-03  2.061733e-03  2.381098e-03  1.964716e-03  2.264976e-03  2.159046e-03  2.526054e-03  2.232896e-03  2.082817e-03  2.422268e-03  1.922466e-03  1.906179e-03  2.141551e-03  2.375193e-03  1.891375e-03  1.771578e-03  1.999552e-03  1.769822e-03  1.735634e-03  1.707662e-03  1.720865e-03  1.692384e-03  1.768388e-03  1.749375e-03  1.732203e-03  1.689846e-03  1.696580e-03   25.0000000 1
8 -2.985368e-03 -5.602578e-03    1.0020358  2.359772e-03  2.145147e-03  2.313707e-03  1.980449e-03  1.822461e-03  1.803399e-03  1.796664e-03  1.700886e-03  1.767371e-03  1.734444e-03  1.759038e-03  1.702308e-03  1.756485e-03  1.735012e-03  1.838977e-03  1.727969e-03  1.847545e-03  1.704548e-03  1.849562e-03  1.678415e-03  1.835467e-03  1.754663e-03  1.724641e-03  1.841914e-03  1.890228e-03  1.439062e-03  1.243551e-03  1.449263e-03  1.864723e-03  1.790422e-03  1.829451e-03   25.0000000 1
9 -4.494204e-04 -1.502546e-02    1.0021345  2.558724e-03  2.175017e-03  2.242600e-03  2.298116e-03  2.318350e-03  1.977251e-03  2.059725e-03  1.953747e-03  1.844117e-03  1.799185e-03  1.699758e-03  1.719543e-03  1.697306e-03  1.756214e-03  1.765020e-03  1.759145e-03  1.698061e-03  1.722479e-03  1.808838e-03  1.713516e-03  1.839980e-03  1.709860e-03  1.739925e-03  1.754007e-03  1.784021e-03  1.748728e-03  1.746383e-03  1.688419e-03  1.700302e-03  1.782810e-03  1.657365e-03   25.0000000 1
10  8.057190e-03  2.108540e-03    1.0016462  2.371012e-03  1.856450e-03  1.861515e-03  1.554120e-03  1.377809e-03  1.202836e-03  1.255095e-03  1.316234e-03  1.345796e-03  1.367956e-03  1.320912e-03  1.389268e-03    1.0010703    1.0011288    1.0013979    1.0015787    1.0016701    1.0016258    1.0014113    1.0011722    1.0009027    1.0008974    1.0009531    1.0010932    1.0011138    1.0011173    1.0010762    1.0010821    1.0010818    1.0010973    1.0011034   25.0000000 1
11  1.070456e-02  1.560146e-02    1.0019233  2.056551e-03  2.476354e-03  2.242452e-03  2.114369e-03  2.124460e-03  1.945933e-03  2.106245e-03  1.828147e-03  1.720393e-03  1.691154e-03  1.712512e-03  1.664883e-03  1.632060e-03  1.634830e-03  1.629176e-03  1.617539e-03  1.716110e-03  1.660844e-03  1.650725e-03  1.694615e-03  1.622144e-03  1.619325e-03  1.726281e-03  1.635178e-03  1.640231e-03  1.624927e-03  1.626108e-03  1.670197e-03  1.623487e-03  1.657154e-03  1.650609e-03   25.0000000 1
12  1.264547e-02 -2.056756e-03    1.0017417  2.016922e-03  2.072029e-03  2.026554e-03  1.998518e-03  2.030492e-03  1.978194e-03  1.846010e-03  1.602399e-03  1.662223e-03  1.538555e-03  1.432628e-03  1.497398e-03  1.387270e-03  1.342828e-03  1.242764e-03  1.292729e-03  1.286187e-03  1.301188e-03  1.227226e-03  1.352473e-03  1.351828e-03  1.399942e-03  1.443402e-03  1.390837e-03  1.350605e-03  1.399599e-03  1.372109e-03  1.358404e-03  1.336367e-03  1.384917e-03    1.0010963   25.0000000 1
13 -5.209474e-05  1.074645e-02    1.0017235  2.417666e-03  2.190021e-03  2.029087e-03  2.061924e-03  2.176503e-03  2.409741e-03  2.329944e-03  2.110437e-03  2.062425e-03  1.919802e-03  2.139799e-03  1.861050e-03  1.760767e-03  1.842344e-03  1.701401e-03  1.714170e-03  1.660275e-03  1.670077e-03  1.672334e-03  1.716803e-03  1.699481e-03  1.688815e-03  1.693655e-03  1.690485e-03  1.826883e-03  1.771275e-03  1.677049e-03  1.722114e-03  1.710544e-03  1.710833e-03  1.767024e-03   25.0000000 1
14 -1.225441e-02  2.084173e-02    1.0023965  2.388009e-03  2.449315e-03  2.204570e-03  2.015211e-03  2.087650e-03  2.182457e-03  2.032807e-03  2.038300e-03  2.365678e-03  1.964674e-03  2.062511e-03  2.083754e-03  2.072095e-03  2.128252e-03  2.079169e-03  2.341144e-03  2.638790e-03  2.150087e-03  2.078620e-03  1.925727e-03  2.091090e-03  2.189942e-03  1.800547e-03  1.755893e-03  1.739145e-03  1.780425e-03  1.860173e-03  1.733923e-03  1.643481e-03  1.683448e-03  1.636150e-03   25.0000000 1
15 -4.115526e-03  7.075968e-03    1.0023750  2.476607e-03  2.047354e-03  2.450259e-03  2.392762e-03  2.501971e-03  2.406458e-03  1.915770e-03  1.953403e-03  1.851151e-03  1.831033e-03  1.749633e-03  1.736126e-03  1.718417e-03  1.617116e-03  1.595973e-03  1.463269e-03  1.523369e-03  1.491154e-03  1.444605e-03  1.328195e-03  1.369668e-03  1.316162e-03  1.320422e-03  1.344576e-03  1.311971e-03  1.412732e-03  1.334331e-03  1.393643e-03  1.427643e-03  1.360218e-03  1.386488e-03   25.0000000 1
16  1.094072e-03  2.340427e-02    1.0019109  2.156111e-03  2.211866e-03  2.100107e-03  2.563237e-03  2.239679e-03  2.251004e-03  1.836222e-03  1.752224e-03  1.708471e-03  1.654224e-03  1.642275e-03  1.585282e-03  1.581339e-03  1.624726e-03  1.725346e-03  1.642089e-03  1.632475e-03  1.647422e-03  1.632299e-03  1.627818e-03  1.644913e-03  1.627126e-03  1.663124e-03  1.669531e-03  1.650521e-03  1.640311e-03  1.736677e-03  1.679110e-03  1.614687e-03  1.615540e-03  1.577608e-03   25.0000000 1
17  1.506865e-02  9.892914e-03    1.0017156  2.001397e-03  1.958601e-03  2.086150e-03  1.944670e-03  2.473507e-03  1.967897e-03  2.054616e-03  2.099887e-03  1.769022e-03  2.121415e-03  1.990112e-03  2.381349e-03  1.755050e-03  2.253501e-03  2.287276e-03  2.076969e-03  1.937458e-03  1.925133e-03  2.381030e-03  2.052418e-03  1.985172e-03  1.867199e-03  2.027668e-03  1.911133e-03  1.932052e-03  1.946659e-03  2.045837e-03  2.264918e-03  1.996133e-03  1.952296e-03  1.943604e-03   25.0000000 1
18  3.222430e-03  8.022565e-03    1.0020153  2.225276e-03  2.626244e-03  2.071445e-03  2.308743e-03  2.371685e-03  2.102469e-03  2.641918e-03  2.181102e-03  2.075042e-03  1.945707e-03  1.922411e-03  1.913924e-03  1.780764e-03  1.742568e-03  1.750686e-03  1.761156e-03  1.706183e-03  1.678344e-03  1.699980e-03  1.756048e-03  1.684343e-03  1.726152e-03  1.679118e-03  1.731941e-03  1.794678e-03  1.696209e-03  1.704882e-03  1.712113e-03  1.693730e-03  1.735473e-03  1.750629e-03   25.0000000 1
19  1.519340e-02 -8.262039e-03    1.0022583  1.984221e-03  1.681590e-03  2.366301e-03  2.470009e-03  2.306743e-03  2.048748e-03  2.435439e-03  2.329771e-03  2.163622e-03  1.993076e-03  2.349806e-03  2.032066e-03  2.364220e-03  2.549485e-03  2.391709e-03  2.509562e-03  2.033778e-03  2.430335e-03  1.988182e-03  2.323118e-03  2.478771e-03  2.510050e-03  2.389185e-03  2.037655e-03  2.315487e-03  2.453245e-03  2.526521e-03  2.414653e-03  2.516907e-03  2.576916e-03  2.062560e-03   25.0000000 1
20  5.958674e-04  2.253077e-02    1.0023011  2.351501e-03  2.251519e-03  2.415102e-03  2.528225e-03  2.300823e-03  2.480711e-03  2.472389e-03  2.080221e-03  2.329443e-03  2.254720e-03  2.253243e-03  2.516491e-03  2.213945e-03  2.235016e-03  2.482536e-03  2.377278e-03  2.432542e-03  2.374905e-03  2.625468e-03  2.118679e-03  2.175835e-03  2.063380e-03  1.890609e-03  2.020395e-03  1.815453e-03  1.911566e-03  2.024425e-03  1.758461e-03  1.825313e-03  1.734899e-03  1.748922e-03   25.0000000 1
21  1.047085e-02 -2.996066e-03    1.0020784  2.094232e-03  2.409841e-03  2.257045e-03  2.384855e-03  1.938202e-03  1.871544e-03  1.821965e-03  1.722667e-03  1.606576e-03  1.491255e-03  1.368006e-03  1.363092e-03  1.404144e-03  1.368141e-03  1.380482e-03  1.393432e-03  1.403319e-03  1.399412e-03  1.414839e-03  1.359334e-03  1.385570e-03    1.0011028    1.0011508    1.0012735    1.0013930    1.0015505    1.0016615    1.0017157    1.0016377    1.0014759    1.0012278   25.0000000 1
22  1.477420e-02  8.369246e-03    1.0018769  2.589430e-03  2.066611e-03  2.205589e-03  2.676428e-03  2.084222e-03  2.276794e-03  2.010878e-03  2.061214e-03  1.854696e-03  1.844007e-03  1.688255e-03  1.695392e-03  1.539657e-03  1.640801e-03  1.558694e-03  1.556868e-03  1.420680e-03  1.441597e-03  1.413980e-03  1.313214e-03  1.332569e-03  1.360348e-03  1.419361e-03  1.448690e-03  1.507768e-03  1.512211e-03  1.523465e-03  1.429812e-03  1.437467e-03  1.418539e-03  1.474927e-03   25.0000000 1
23 -1.295580e-02  2.867085e-02    1.0021045  2.139884e-03  2.157366e-03  2.274311e-03  2.299727e-03  2.052953e-03  1.814181e-03  1.764664e-03  1.665040e-03  1.680240e-03  1.640178e-03  1.699740e-03  1.712451e-03  1.685538e-03  1.672913e-03  1.664799e-03  1.687131e-03  1.693400e-03  1.713811e-03  1.663741e-03  1.665035e-03  1.653110e-03  1.740144e-03  1.700151e-03  1.681076e-03  1.614687e-03  1.616510e-03  1.708952e-03  1.670850e-03  1.768302e-03  1.892677e-03  1.690113e-03   25.0000000 1
24 -4.391213e-03 -6.216074e-03    1.0021034  1.962452e-03  2.386581e-03  2.181639e-03  2.291020e-03  2.339141e-03  2.104556e-03  2.021597e-03  2.128763e-03  2.000954e-03  1.796375e-03  1.730815e-03  1.772649e-03  1.712793e-03  1.747136e-03  1.667368e-03  1.605604e-03  1.739738e-03  1.787854e-03  1.795786e-03  1.655074e-03  1.722537e-03  1.727418e-03  1.647036e-03  1.674138e-03  1.684030e-03  1.715852e-03  1.661491e-03  1.649336e-03  1.698971e-03  1.684237e-03  1.681595e-03   25.0000000 1
25  4.019797e-03  3.686712e-03    1.0018021  2.347408e-03  2.544262e-03  2.159983e-03  2.041804e-03  2.285452e-03  2.352641e-03  2.066133e-03  2.366100e-03  2.362059e-03  2.108310e-03  2.103213e-03  2.088644e-03  2.119537e-03  2.214417e-03  2.673666e-03  2.518702e-03  2.373503e-03  2.793263e-03  2.312310e-03  1.983018e-03  1.996404e-03  1.861757e-03  2.228343e-03  1.830068e-03  1.943126e-03  1.815242e-03  1.777141e-03  1.815585e-03  1.823679e-03  1.844137e-03  1.716605e-03   25.0000000 1
26  3.056707e-03  2.948078e-03    1.0018591  2.202734e-03  2.132426e-03  2.427850e-03  2.512250e-03  2.366674e-03  1.854828e-03  1.722264e-03  1.712226e-03  1.694776e-03  1.674044e-03  1.768278e-03  1.719250e-03  1.679607e-03  1.691621e-03  1.672381e-03  1.814351e-03  1.676062e-03  1.683272e-03  1.698011e-03  1.737982e-03  1.738074e-03  1.665533e-03  1.746237e-03  1.723043e-03  1.684850e-03  1.649549e-03  1.639807e-03  1.671122e-03  1.648357e-03  1.667919e-03  1.740362e-03   25.0000000 1
27  1.292299e-02  6.536787e-03    1.0019305  2.443215e-03  1.894646e-03  1.683354e-03  1.624723e-03  1.649900e-03  1.683530e-03  1.636888e-03  1.632904e-03  1.726289e-03  1.616346e-03  1.697596e-03  1.611402e-03  1.855328e-03  1.237453e-03  1.676647e-03  1.749230e-03  1.531611e-03  1.285702e-03    1.0006415    1.0011635    1.0010308    1.0010824    1.0010025    1.0010727    1.0010861    1.0010473    1.0011124    1.0011392    1.0010131    1.0011892    1.0015775   25.0000000 1
28 -3.484321e-03  5.249411e-03    1.0018142  2.133356e-03  2.373270e-03  2.043110e-03  2.033254e-03  2.094305e-03  1.922716e-03  1.919130e-03  1.817285e-03  1.708663e-03  1.600750e-03  1.684309e-03  1.635793e-03  1.635038e-03  1.531579e-03  1.463644e-03  1.316448e-03  1.372406e-03  1.391611e-03  1.459984e-03  1.529778e-03  1.483895e-03  1.555008e-03  1.474497e-03  1.441881e-03  1.488611e-03  1.476130e-03  1.444451e-03  1.493419e-03  1.477790e-03  1.496967e-03    1.0011918   25.0000000 1
29 -1.285730e-03  7.364441e-03    1.0020929  2.299044e-03  2.327266e-03  2.499154e-03  2.069494e-03  2.030968e-03  2.014793e-03  1.951379e-03  2.048495e-03  1.912016e-03  1.926455e-03  1.889709e-03  1.766627e-03  1.860329e-03  1.683772e-03  1.756359e-03  1.763943e-03  1.594350e-03  1.642729e-03  1.480027e-03  1.383884e-03  1.457175e-03  1.329806e-03  1.369650e-03  1.386605e-03  1.363733e-03  1.396394e-03  1.393046e-03  1.421532e-03  1.402511e-03  1.532094e-03  1.560747e-03   25.0000000 1
30 -3.940685e-03 -3.864622e-03    1.0018952  2.208621e-03  2.450258e-03  2.441625e-03  1.971643e-03  2.490397e-03  2.068846e-03  2.749993e-03  2.044340e-03  1.993244e-03  1.914867e-03  1.992680e-03  1.923085e-03  1.858925e-03  1.777181e-03  1.748694e-03  1.852396e-03  1.754774e-03  1.723481e-03  1.705934e-03  1.699746e-03  1.773488e-03  1.814830e-03  1.746364e-03  1.859707e-03  1.774620e-03  1.756848e-03  1.749100e-03  1.744957e-03  1.851806e-03  1.811717e-03  1.746306e-03   25.0000000 1
31 -2.854921e-03  3.542950e-03    1.0016832  1.518195e-03  1.224575e-03  1.380122e-03  1.378917e-03  1.558671e-03    1.0015797    1.0016131    1.0009606    1.0009991    1.0011128    1.0011125    1.0010929    1.0011059    1.0010652    1.0011119    1.0010402    1.0010096    1.0010760    1.0010865    1.0010833    1.0010005    1.0010717    1.0010865    1.0011452    1.0011375    1.0011784    1.0009649    1.0005372    1.0006279    1.0009871    1.0009948   25.0000000 1
32 -8.679332e-03  9.127463e-03    1.0016222  1.530210e-03  1.333173e-03  1.374048e-03  1.360054e-03  1.636856e-03    1.0016442    1.0014193    1.0009519    1.0011232    1.0011254    1.0011502    1.0011275    1.0011315    1.0010278    1.0010463    1.0010415    1.0010924    1.0010580    1.0011070    1.0011121    1.0011143    1.0010874    1.0010843    1.0011755    1.0010297    1.0006659    1.0005618    1.0011403    1.0009907    1.0012279    1.0013357   25.0000000 1
33 -1.512675e-03  2.111817e-03    1.0015699  1.422401e-03  1.307579e-03  1.381580e-03  1.856291e-03    1.0014332    1.0009613    1.0011113    1.0010869    1.0010754    1.0009072    1.0008970    1.0010680    1.0010285    1.0010381    1.0010628    1.0011181    1.0010768    1.0006917    1.0005921    1.0010188    1.0011789    1.0013172  1.677099e-03  1.216520e-03  1.141573e-03  1.753802e-03  1.608743e-03  1.524818e-03  1.585683e-03  1.623768e-03  1.674005e-03   25.0000000 1
34 -9.989640e-03 -8.721406e-03    1.0015574  1.462407e-03  1.277222e-03  1.377956e-03  1.410710e-03    1.0015878    1.0013978    1.0009030    1.0010957    1.0010744    1.0010786    1.0011071    1.0010441    1.0011010    1.0010830    1.0010333    1.0010849    1.0010782    1.0010944    1.0010679    1.0011275    1.0010923    1.0006868    1.0005545    1.0009708    1.0011717    1.0013199  1.743370e-03  1.825212e-03  1.283054e-03  1.159222e-03  1.652287e-03   25.0000000 1
35  1.790587e-03  1.517696e-02    1.0021185  2.311094e-03  2.083404e-03  2.355948e-03  2.346540e-03  1.864410e-03  1.815717e-03  1.744317e-03  1.730259e-03  1.697598e-03  1.717539e-03  1.803984e-03  1.737774e-03  1.750917e-03  1.697521e-03  1.754299e-03  1.831489e-03  1.715533e-03  1.720913e-03  1.784214e-03  1.712565e-03  1.729166e-03  1.761520e-03  1.713084e-03  1.753173e-03  1.815595e-03  1.680824e-03  1.652602e-03  1.764891e-03  1.660662e-03  1.702111e-03  1.776571e-03   25.0000000 1
36 -1.009127e-02 -1.444298e-03    1.0018596  2.384149e-03  2.104775e-03  2.201353e-03  2.062489e-03  2.210524e-03  2.084836e-03  2.190358e-03  2.718767e-03  2.312372e-03  2.391668e-03  1.940360e-03  1.930651e-03  1.917537e-03  1.792114e-03  1.702082e-03  1.754422e-03  1.667782e-03  1.737280e-03  1.704616e-03  1.730695e-03  1.640653e-03  1.662269e-03  1.615794e-03  1.692028e-03  1.608382e-03  1.624022e-03  1.647961e-03  1.668246e-03  1.718919e-03  1.688636e-03  1.666627e-03   25.0000000 1
37 -9.829913e-03 -1.627801e-02    1.0017837  2.291736e-03  2.304721e-03  2.300710e-03  2.303741e-03  2.304722e-03  2.293676e-03  2.296562e-03  1.773802e-03  1.813054e-03  2.356952e-03  1.636990e-03  1.597559e-03  2.538251e-03  2.514796e-03  2.351998e-03  2.407114e-03  2.317150e-03  1.654010e-03  1.738325e-03  2.072536e-03  2.378857e-03  2.069250e-03  2.562613e-03  1.691911e-03  2.362721e-03  2.530208e-03  2.500611e-03  2.277237e-03  2.083192e-03  2.341370e-03  2.072341e-03   25.0000000 1
38 -4.628166e-03  4.392526e-03    1.0020852  2.147957e-03  2.134347e-03  2.365138e-03  2.443620e-03  2.313329e-03  2.308276e-03  1.807950e-03  1.935731e-03  1.769285e-03  1.765538e-03  1.701947e-03  1.691320e-03  1.669533e-03  1.895176e-03  1.690705e-03  1.728536e-03  1.716928e-03  1.744012e-03  1.724374e-03  1.748252e-03  1.865303e-03  1.701270e-03  1.793767e-03  1.702212e-03  1.703324e-03  1.800182e-03  1.719443e-03  1.704696e-03  1.724629e-03  1.766833e-03  1.676474e-03   25.0000000 1
39  1.490953e-02 -1.414667e-02    1.0019740  2.010310e-03  1.617303e-03  1.358446e-03  1.313420e-03  1.431332e-03  1.369570e-03  1.351175e-03    1.0011142    1.0014255    1.0017031    1.0015904    1.0010735    1.0008337    1.0010688    1.0011703    1.0011276    1.0010926    1.0010809    1.0010445    1.0011056    1.0010395    1.0010730    1.0011359    1.0011082    1.0011047    1.0010315    1.0010597    1.0011026    1.0010104    1.0010649    1.0010807   25.0000000 1
40  2.962881e-03  5.412275e-03    1.0020233  2.147280e-03  2.292110e-03  2.013639e-03  1.871499e-03  1.722115e-03  1.719926e-03  1.659311e-03  1.684120e-03  1.694570e-03  1.657236e-03  1.703372e-03  1.725524e-03  1.665006e-03  1.657429e-03  1.667481e-03  1.660258e-03  1.664792e-03  1.647253e-03  1.626975e-03  1.675766e-03  1.672560e-03  1.725727e-03  1.963595e-03  1.457168e-03  1.204234e-03  1.225350e-03  1.755760e-03  1.795036e-03  1.832287e-03  1.618319e-03  1.720473e-03   25.0000000 1
41  5.256435e-03 -8.512233e-03    1.0023529  2.474694e-03  2.548797e-03  2.479704e-03  2.581282e-03  2.128957e-03  2.477608e-03  2.019367e-03  2.042139e-03  2.244864e-03  2.391319e-03  2.019688e-03  2.098051e-03  1.910630e-03  1.894952e-03  2.133076e-03  2.265945e-03  2.252033e-03  2.012481e-03  2.301120e-03  2.040168e-03  1.981094e-03  1.533180e-03  2.001198e-03  2.600253e-03  2.105696e-03  2.196308e-03  2.387948e-03  2.310056e-03  2.426852e-03  2.112656e-03  1.998794e-03   25.0000000 1
42 -2.119002e-03  6.207925e-03    1.0017220  1.999770e-03  2.232071e-03  1.976986e-03  1.747848e-03  1.613525e-03  1.513465e-03  1.378665e-03  1.390581e-03  1.443059e-03  1.515607e-03  1.426871e-03  1.402060e-03  1.423036e-03    1.0011429    1.0012453    1.0014303    1.0016491    1.0017205    1.0017179    1.0015786    1.0013186    1.0010041    1.0009181    1.0009649    1.0010279    1.0010972    1.0011601    1.0011778    1.0011631    1.0011509    1.0011736   25.0000000 1
43 -5.208640e-03 -6.111177e-03    1.0017782  2.290028e-03  2.129028e-03  2.204271e-03  2.179808e-03  2.140008e-03  1.925373e-03  1.832366e-03  1.773864e-03  1.728183e-03  1.698622e-03  1.651699e-03  1.604544e-03  1.757855e-03  1.724337e-03  1.714014e-03  1.686237e-03  1.704305e-03  1.690228e-03  1.670407e-03  1.690488e-03  1.883554e-03  1.697045e-03  1.686579e-03  1.689119e-03  1.677924e-03  1.693719e-03  1.833287e-03  1.638313e-03  1.665284e-03  1.632194e-03  1.621866e-03   25.0000000 1
44 -1.974623e-03 -7.456448e-03    1.0018000  2.041858e-03  1.767639e-03  1.672278e-03  1.505873e-03  1.332544e-03  1.319932e-03  1.361987e-03  1.365485e-03  1.389599e-03    1.0011034    1.0013100    1.0015877    1.0016622    1.0014793    1.0010289    1.0009354    1.0009584    1.0009994    1.0011277    1.0011497    1.0010660    1.0011286    1.0010877    1.0010323    1.0010696    1.0010796    1.0011014    1.0010451    1.0010779    1.0009947    1.0010332   25.0000000 1
45 -3.705885e-04  2.026277e-03    1.0019371  2.456142e-03  2.089303e-03  1.953679e-03  1.972139e-03  1.814692e-03  1.858278e-03  1.798802e-03  1.597968e-03  1.531627e-03  1.415592e-03  1.481898e-03  1.337521e-03  1.317430e-03  1.327617e-03  1.243353e-03  1.245191e-03  1.363966e-03  1.340609e-03  1.331923e-03  1.380873e-03  1.363130e-03  1.352528e-03  1.408443e-03  1.439828e-03  1.344661e-03  1.399539e-03  1.373463e-03  1.342852e-03  1.374234e-03    1.0011141    1.0010928   25.0000000 1
46 -1.858271e-03 -4.533520e-03    1.0016264  2.210238e-03  2.422738e-03  1.965928e-03  2.384169e-03  1.982921e-03  2.190444e-03  2.516064e-03  2.303424e-03  2.145091e-03  2.228327e-03  2.033103e-03  2.127858e-03  2.082533e-03  2.230065e-03  2.413085e-03  2.269718e-03  2.571908e-03  1.964405e-03  1.972803e-03  2.312738e-03  1.946562e-03  2.033216e-03  1.919238e-03  1.990999e-03  1.944959e-03  1.824122e-03  1.901945e-03  1.815252e-03  1.746178e-03  1.720478e-03  1.668833e-03   25.0000000 1
47  1.886067e-02 -7.048259e-03    1.0022563  2.558274e-03  2.341799e-03  2.122379e-03  2.181133e-03  2.192585e-03  2.325054e-03  2.116379e-03  2.362050e-03  1.883675e-03  1.789055e-03  1.737499e-03  1.718853e-03  1.719066e-03  1.661819e-03  1.665614e-03  1.643546e-03  1.639408e-03  1.729765e-03  1.797986e-03  1.681754e-03  1.694816e-03  1.708802e-03  1.659701e-03  1.693590e-03  1.667086e-03  1.639165e-03  1.708356e-03  1.742162e-03  1.675337e-03  1.643262e-03  1.680467e-03   25.0000000 1
48 -6.628162e-03 -3.725121e-04    1.0018478  2.265592e-03  2.495705e-03  2.110497e-03  1.889757e-03  1.796791e-03  1.826290e-03  1.679574e-03  1.645102e-03  1.611098e-03  1.427187e-03  1.365068e-03  1.364899e-03  1.445221e-03  1.399383e-03  1.386319e-03  1.430313e-03  1.461405e-03  1.487893e-03  1.459634e-03  1.451640e-03  1.434446e-03  1.455283e-03  1.441919e-03  1.423826e-03  1.478818e-03    1.0012043    1.0011704    1.0012276    1.0012901    1.0014239    1.0014743   25.0000000 1
49  7.630600e-03  2.945168e-04    1.0017656  2.505606e-03  2.420132e-03  2.346932e-03  2.036611e-03  2.213581e-03  2.084687e-03  1.997287e-03  2.270144e-03  1.979700e-03  1.844273e-03  1.717037e-03  1.735386e-03  1.681752e-03  1.701257e-03  1.688518e-03  1.645699e-03  1.622123e-03  1.680521e-03  1.658140e-03  1.692331e-03  1.690344e-03  1.829920e-03  1.695942e-03  1.652457e-03  1.658413e-03  1.648107e-03  1.701858e-03  1.709455e-03  1.694353e-03  1.721560e-03  1.824835e-03   25.0000000 1
50 -1.689270e-02  1.791674e-02    1.0020490  2.348830e-03  2.167486e-03  2.364755e-03  2.266464e-03  2.222580e-03  1.781282e-03  1.815146e-03  1.776454e-03  1.691391e-03  1.679951e-03  1.715381e-03  1.703398e-03  1.706840e-03  1.689707e-03  1.782700e-03  1.760631e-03  1.753257e-03  1.783888e-03  1.688229e-03  1.686762e-03  1.728148e-03  1.719488e-03  1.719006e-03  1.722777e-03  1.738682e-03  1.665126e-03  1.677290e-03  1.650421e-03  1.696498e-03  1.716439e-03  1.655781e-03   25.0000000 1
